* NGSPICE file created from cfgsr.ext - technology: sky130A

* Black-box entry subcircuit for sky130_fd_sc_hd__tapvpwrvgnd_1 abstract view
.subckt sky130_fd_sc_hd__tapvpwrvgnd_1 VGND VPWR
.ends

* Black-box entry subcircuit for sky130_fd_sc_hd__diode_2 abstract view
.subckt sky130_fd_sc_hd__diode_2 DIODE VGND VNB VPB VPWR
.ends

* Black-box entry subcircuit for sky130_fd_sc_hd__decap_4 abstract view
.subckt sky130_fd_sc_hd__decap_4 VGND VNB VPB VPWR
.ends

* Black-box entry subcircuit for sky130_fd_sc_hd__fill_1 abstract view
.subckt sky130_fd_sc_hd__fill_1 VGND VNB VPB VPWR
.ends

* Black-box entry subcircuit for sky130_fd_sc_hd__fill_2 abstract view
.subckt sky130_fd_sc_hd__fill_2 VGND VNB VPB VPWR
.ends

* Black-box entry subcircuit for sky130_fd_sc_hd__decap_8 abstract view
.subckt sky130_fd_sc_hd__decap_8 VGND VNB VPB VPWR
.ends

* Black-box entry subcircuit for sky130_fd_sc_hd__dfxtp_1 abstract view
.subckt sky130_fd_sc_hd__dfxtp_1 CLK D VGND VNB VPB VPWR Q
.ends

* Black-box entry subcircuit for sky130_fd_sc_hd__clkbuf_1 abstract view
.subckt sky130_fd_sc_hd__clkbuf_1 A VGND VNB VPB VPWR X
.ends

* Black-box entry subcircuit for sky130_ef_sc_hd__decap_12 abstract view
.subckt sky130_ef_sc_hd__decap_12 VGND VNB VPB VPWR
.ends

* Black-box entry subcircuit for sky130_fd_sc_hd__decap_6 abstract view
.subckt sky130_fd_sc_hd__decap_6 VGND VNB VPB VPWR
.ends

* Black-box entry subcircuit for sky130_fd_sc_hd__dfxtp_2 abstract view
.subckt sky130_fd_sc_hd__dfxtp_2 CLK D VGND VNB VPB VPWR Q
.ends

* Black-box entry subcircuit for sky130_fd_sc_hd__and2_1 abstract view
.subckt sky130_fd_sc_hd__and2_1 A B VGND VNB VPB VPWR X
.ends

* Black-box entry subcircuit for sky130_fd_sc_hd__buf_2 abstract view
.subckt sky130_fd_sc_hd__buf_2 A VGND VNB VPB VPWR X
.ends

* Black-box entry subcircuit for sky130_fd_sc_hd__decap_3 abstract view
.subckt sky130_fd_sc_hd__decap_3 VGND VNB VPB VPWR
.ends

* Black-box entry subcircuit for sky130_fd_sc_hd__dlymetal6s2s_1 abstract view
.subckt sky130_fd_sc_hd__dlymetal6s2s_1 A VGND VNB VPB VPWR X
.ends

* Black-box entry subcircuit for sky130_fd_sc_hd__clkbuf_4 abstract view
.subckt sky130_fd_sc_hd__clkbuf_4 A VGND VNB VPB VPWR X
.ends

* Black-box entry subcircuit for sky130_fd_sc_hd__clkbuf_2 abstract view
.subckt sky130_fd_sc_hd__clkbuf_2 A VGND VNB VPB VPWR X
.ends

* Black-box entry subcircuit for sky130_fd_sc_hd__clkbuf_16 abstract view
.subckt sky130_fd_sc_hd__clkbuf_16 A VGND VNB VPB VPWR X
.ends

* Black-box entry subcircuit for sky130_fd_sc_hd__buf_4 abstract view
.subckt sky130_fd_sc_hd__buf_4 A VGND VNB VPB VPWR X
.ends

* Black-box entry subcircuit for sky130_fd_sc_hd__buf_6 abstract view
.subckt sky130_fd_sc_hd__buf_6 A VGND VNB VPB VPWR X
.ends

* Black-box entry subcircuit for sky130_fd_sc_hd__dfxtp_4 abstract view
.subckt sky130_fd_sc_hd__dfxtp_4 CLK D VGND VNB VPB VPWR Q
.ends

.subckt cfgsr dq[0] dq[100] dq[101] dq[102] dq[103] dq[104] dq[105] dq[106] dq[107]
+ dq[108] dq[109] dq[10] dq[110] dq[111] dq[112] dq[113] dq[114] dq[115] dq[116] dq[117]
+ dq[118] dq[119] dq[11] dq[120] dq[121] dq[122] dq[123] dq[124] dq[125] dq[126] dq[127]
+ dq[128] dq[129] dq[12] dq[130] dq[131] dq[132] dq[133] dq[134] dq[135] dq[136] dq[137]
+ dq[138] dq[139] dq[13] dq[140] dq[141] dq[142] dq[143] dq[144] dq[145] dq[146] dq[147]
+ dq[148] dq[149] dq[14] dq[150] dq[151] dq[152] dq[153] dq[154] dq[155] dq[156] dq[157]
+ dq[158] dq[159] dq[15] dq[160] dq[161] dq[162] dq[163] dq[164] dq[165] dq[166] dq[167]
+ dq[168] dq[169] dq[16] dq[170] dq[171] dq[172] dq[173] dq[174] dq[175] dq[176] dq[177]
+ dq[178] dq[179] dq[17] dq[180] dq[181] dq[182] dq[183] dq[184] dq[185] dq[186] dq[187]
+ dq[188] dq[189] dq[18] dq[190] dq[191] dq[192] dq[193] dq[194] dq[195] dq[196] dq[197]
+ dq[198] dq[199] dq[19] dq[1] dq[200] dq[201] dq[202] dq[203] dq[204] dq[205] dq[206]
+ dq[207] dq[208] dq[209] dq[20] dq[210] dq[211] dq[212] dq[213] dq[214] dq[215] dq[216]
+ dq[217] dq[218] dq[219] dq[21] dq[220] dq[221] dq[222] dq[223] dq[224] dq[225] dq[226]
+ dq[227] dq[228] dq[229] dq[22] dq[230] dq[231] dq[232] dq[233] dq[234] dq[235] dq[236]
+ dq[237] dq[238] dq[239] dq[23] dq[240] dq[241] dq[242] dq[243] dq[244] dq[245] dq[246]
+ dq[247] dq[248] dq[249] dq[24] dq[250] dq[251] dq[252] dq[253] dq[254] dq[255] dq[25]
+ dq[26] dq[27] dq[28] dq[29] dq[2] dq[30] dq[31] dq[32] dq[33] dq[34] dq[35] dq[36]
+ dq[37] dq[38] dq[39] dq[3] dq[40] dq[41] dq[42] dq[43] dq[44] dq[45] dq[46] dq[47]
+ dq[48] dq[49] dq[4] dq[50] dq[51] dq[52] dq[53] dq[54] dq[55] dq[56] dq[57] dq[58]
+ dq[59] dq[5] dq[60] dq[61] dq[62] dq[63] dq[64] dq[65] dq[66] dq[67] dq[68] dq[69]
+ dq[6] dq[70] dq[71] dq[72] dq[73] dq[74] dq[75] dq[76] dq[77] dq[78] dq[79] dq[7]
+ dq[80] dq[81] dq[82] dq[83] dq[84] dq[85] dq[86] dq[87] dq[88] dq[89] dq[8] dq[90]
+ dq[91] dq[92] dq[93] dq[94] dq[95] dq[96] dq[97] dq[98] dq[99] dq[9] latch rst_n
+ sclk sdi sdo vccd1 vssd1
XTAP_199 vssd1 vccd1 sky130_fd_sc_hd__tapvpwrvgnd_1
XTAP_188 vssd1 vccd1 sky130_fd_sc_hd__tapvpwrvgnd_1
XTAP_177 vssd1 vccd1 sky130_fd_sc_hd__tapvpwrvgnd_1
XANTENNA__1231__CLK clknet_leaf_7_sclk vssd1 vssd1 vccd1 vccd1 sky130_fd_sc_hd__diode_2
XFILLER_11_818 vssd1 vssd1 vccd1 vccd1 sky130_fd_sc_hd__decap_4
XFILLER_17_1487 vssd1 vssd1 vccd1 vccd1 sky130_fd_sc_hd__fill_1
XFILLER_8_1644 vssd1 vssd1 vccd1 vccd1 sky130_fd_sc_hd__decap_4
XFILLER_4_1508 vssd1 vssd1 vccd1 vccd1 sky130_fd_sc_hd__decap_4
XFILLER_19_918 vssd1 vssd1 vccd1 vccd1 sky130_fd_sc_hd__decap_4
XFILLER_14_601 vssd1 vssd1 vccd1 vccd1 sky130_fd_sc_hd__decap_4
XFILLER_18_1229 vssd1 vssd1 vccd1 vccd1 sky130_fd_sc_hd__decap_4
XFILLER_13_111 vssd1 vssd1 vccd1 vccd1 sky130_fd_sc_hd__fill_1
XFILLER_14_645 vssd1 vssd1 vccd1 vccd1 sky130_fd_sc_hd__fill_2
XFILLER_13_166 vssd1 vssd1 vccd1 vccd1 sky130_fd_sc_hd__fill_2
XFILLER_14_678 vssd1 vssd1 vccd1 vccd1 sky130_fd_sc_hd__decap_4
XFILLER_9_137 vssd1 vssd1 vccd1 vccd1 sky130_fd_sc_hd__decap_4
XANTENNA__0613__A _0319_ vssd1 vssd1 vccd1 vccd1 sky130_fd_sc_hd__diode_2
XFILLER_5_365 vssd1 vssd1 vccd1 vccd1 sky130_fd_sc_hd__fill_1
XANTENNA__1104__CLK clknet_leaf_9_sclk vssd1 vssd1 vccd1 vccd1 sky130_fd_sc_hd__diode_2
XANTENNA__1254__CLK clknet_leaf_7_sclk vssd1 vssd1 vccd1 vccd1 sky130_fd_sc_hd__diode_2
XFILLER_7_1121 vssd1 vssd1 vccd1 vccd1 sky130_fd_sc_hd__decap_8
X_1270_ clknet_leaf_4_sclk _0247_ vssd1 vssd1 vccd1 vccd1 sr\[203\] sky130_fd_sc_hd__dfxtp_1
XFILLER_3_1007 vssd1 vssd1 vccd1 vccd1 sky130_fd_sc_hd__fill_1
XANTENNA_output56_A net56 vssd1 vssd1 vccd1 vccd1 sky130_fd_sc_hd__diode_2
XFILLER_17_472 vssd1 vssd1 vccd1 vccd1 sky130_fd_sc_hd__decap_4
X_0985_ _0518_ vssd1 vssd1 vccd1 vccd1 _0011_ sky130_fd_sc_hd__clkbuf_1
XFILLER_9_693 vssd1 vssd1 vccd1 vccd1 sky130_fd_sc_hd__decap_4
XFILLER_8_192 vssd1 vssd1 vccd1 vccd1 sky130_fd_sc_hd__decap_4
XFILLER_12_1351 vssd1 vssd1 vccd1 vccd1 sky130_fd_sc_hd__decap_4
XFILLER_12_1373 vssd1 vssd1 vccd1 vccd1 sky130_fd_sc_hd__fill_2
X_1537_ net290 sr\[214\] vssd1 vssd1 vccd1 vccd1 net131 sky130_fd_sc_hd__dfxtp_1
X_1468_ net279 sr\[145\] vssd1 vssd1 vccd1 vccd1 net54 sky130_fd_sc_hd__dfxtp_1
XANTENNA__1504__D sr\[181\] vssd1 vssd1 vccd1 vccd1 sky130_fd_sc_hd__diode_2
X_1399_ net267 sr\[76\] vssd1 vssd1 vccd1 vccd1 net233 sky130_fd_sc_hd__dfxtp_1
XFILLER_15_409 vssd1 vssd1 vccd1 vccd1 sky130_fd_sc_hd__fill_1
XFILLER_19_1549 vssd1 vssd1 vccd1 vccd1 sky130_fd_sc_hd__fill_1
XFILLER_10_136 vssd1 vssd1 vccd1 vccd1 sky130_fd_sc_hd__decap_4
XFILLER_13_1137 vssd1 vssd1 vccd1 vccd1 sky130_ef_sc_hd__decap_12
XANTENNA__1127__CLK clknet_leaf_1_sclk vssd1 vssd1 vccd1 vccd1 sky130_fd_sc_hd__diode_2
XFILLER_12_65 vssd1 vssd1 vccd1 vccd1 sky130_ef_sc_hd__decap_12
XANTENNA__1277__CLK clknet_leaf_6_sclk vssd1 vssd1 vccd1 vccd1 sky130_fd_sc_hd__diode_2
XFILLER_8_1485 vssd1 vssd1 vccd1 vccd1 sky130_fd_sc_hd__decap_4
XFILLER_19_726 vssd1 vssd1 vccd1 vccd1 sky130_fd_sc_hd__fill_2
XFILLER_18_203 vssd1 vssd1 vccd1 vccd1 sky130_fd_sc_hd__decap_4
XFILLER_15_943 vssd1 vssd1 vccd1 vccd1 sky130_fd_sc_hd__decap_4
XFILLER_18_1037 vssd1 vssd1 vccd1 vccd1 sky130_fd_sc_hd__fill_2
XFILLER_15_965 vssd1 vssd1 vccd1 vccd1 sky130_fd_sc_hd__decap_8
X_0770_ _0405_ vssd1 vssd1 vccd1 vccd1 _0165_ sky130_fd_sc_hd__clkbuf_1
XFILLER_10_692 vssd1 vssd1 vccd1 vccd1 sky130_fd_sc_hd__decap_4
XFILLER_5_173 vssd1 vssd1 vccd1 vccd1 sky130_fd_sc_hd__decap_6
XANTENNA__0997__B sr\[228\] vssd1 vssd1 vccd1 vccd1 sky130_fd_sc_hd__diode_2
X_1322_ clknet_leaf_5_sclk _0043_ vssd1 vssd1 vccd1 vccd1 net260 sky130_fd_sc_hd__dfxtp_2
X_1253_ clknet_leaf_5_sclk _0230_ vssd1 vssd1 vccd1 vccd1 sr\[186\] sky130_fd_sc_hd__dfxtp_1
X_1184_ clknet_leaf_3_sclk _0161_ vssd1 vssd1 vccd1 vccd1 sr\[117\] sky130_fd_sc_hd__dfxtp_1
XFILLER_20_1675 vssd1 vssd1 vccd1 vccd1 sky130_fd_sc_hd__decap_4
XFILLER_20_1653 vssd1 vssd1 vccd1 vccd1 sky130_fd_sc_hd__fill_2
XFILLER_18_1560 vssd1 vssd1 vccd1 vccd1 sky130_fd_sc_hd__decap_4
XFILLER_14_1402 vssd1 vssd1 vccd1 vccd1 sky130_fd_sc_hd__decap_4
X_0968_ _0508_ sr\[214\] vssd1 vssd1 vccd1 vccd1 _0510_ sky130_fd_sc_hd__and2_1
XFILLER_14_1435 vssd1 vssd1 vccd1 vccd1 sky130_fd_sc_hd__decap_4
X_0899_ _0473_ vssd1 vssd1 vccd1 vccd1 _0226_ sky130_fd_sc_hd__clkbuf_1
Xoutput253 net253 vssd1 vssd1 vccd1 vccd1 dq[94] sky130_fd_sc_hd__buf_2
Xoutput231 net231 vssd1 vssd1 vccd1 vccd1 dq[74] sky130_fd_sc_hd__buf_2
Xoutput242 net242 vssd1 vssd1 vccd1 vccd1 dq[84] sky130_fd_sc_hd__buf_2
Xoutput220 net220 vssd1 vssd1 vccd1 vccd1 dq[64] sky130_fd_sc_hd__buf_2
XFILLER_5_1625 vssd1 vssd1 vccd1 vccd1 sky130_fd_sc_hd__fill_2
XFILLER_15_217 vssd1 vssd1 vccd1 vccd1 sky130_fd_sc_hd__fill_2
XFILLER_15_239 vssd1 vssd1 vccd1 vccd1 sky130_fd_sc_hd__decap_6
XFILLER_8_917 vssd1 vssd1 vccd1 vccd1 sky130_fd_sc_hd__decap_3
XFILLER_7_449 vssd1 vssd1 vccd1 vccd1 sky130_ef_sc_hd__decap_12
XFILLER_11_467 vssd1 vssd1 vccd1 vccd1 sky130_fd_sc_hd__decap_4
XFILLER_3_600 vssd1 vssd1 vccd1 vccd1 sky130_ef_sc_hd__decap_12
XFILLER_2_121 vssd1 vssd1 vccd1 vccd1 sky130_fd_sc_hd__decap_8
XFILLER_3_666 vssd1 vssd1 vccd1 vccd1 sky130_fd_sc_hd__decap_6
XFILLER_2_165 vssd1 vssd1 vccd1 vccd1 sky130_fd_sc_hd__decap_4
XFILLER_19_523 vssd1 vssd1 vccd1 vccd1 sky130_fd_sc_hd__decap_4
XFILLER_0_57 vssd1 vssd1 vccd1 vccd1 sky130_fd_sc_hd__fill_2
XFILLER_14_261 vssd1 vssd1 vccd1 vccd1 sky130_fd_sc_hd__decap_3
X_0822_ _0430_ sr\[145\] vssd1 vssd1 vccd1 vccd1 _0433_ sky130_fd_sc_hd__and2_1
XFILLER_7_983 vssd1 vssd1 vccd1 vccd1 sky130_fd_sc_hd__decap_4
X_0753_ _0396_ vssd1 vssd1 vccd1 vccd1 _0157_ sky130_fd_sc_hd__clkbuf_1
X_0684_ _0360_ vssd1 vssd1 vccd1 vccd1 _0124_ sky130_fd_sc_hd__clkbuf_1
XANTENNA__0801__A _0419_ vssd1 vssd1 vccd1 vccd1 sky130_fd_sc_hd__diode_2
X_1305_ clknet_leaf_5_sclk _0026_ vssd1 vssd1 vccd1 vccd1 sr\[238\] sky130_fd_sc_hd__dfxtp_1
X_1236_ clknet_leaf_5_sclk _0213_ vssd1 vssd1 vccd1 vccd1 sr\[169\] sky130_fd_sc_hd__dfxtp_2
XFILLER_0_1511 vssd1 vssd1 vccd1 vccd1 sky130_fd_sc_hd__fill_1
X_1167_ clknet_leaf_10_sclk _0144_ vssd1 vssd1 vccd1 vccd1 sr\[100\] sky130_fd_sc_hd__dfxtp_1
XFILLER_20_1483 vssd1 vssd1 vccd1 vccd1 sky130_fd_sc_hd__fill_1
X_1098_ clknet_leaf_1_sclk _0075_ vssd1 vssd1 vccd1 vccd1 sr\[31\] sky130_fd_sc_hd__dfxtp_1
XFILLER_0_1566 vssd1 vssd1 vccd1 vccd1 sky130_fd_sc_hd__fill_2
XFILLER_20_242 vssd1 vssd1 vccd1 vccd1 sky130_fd_sc_hd__decap_4
XFILLER_20_253 vssd1 vssd1 vccd1 vccd1 sky130_fd_sc_hd__decap_3
XFILLER_5_909 vssd1 vssd1 vccd1 vccd1 sky130_ef_sc_hd__decap_12
XFILLER_4_419 vssd1 vssd1 vccd1 vccd1 sky130_fd_sc_hd__fill_1
XFILLER_10_1129 vssd1 vssd1 vccd1 vccd1 sky130_fd_sc_hd__decap_8
XFILLER_14_1287 vssd1 vssd1 vccd1 vccd1 sky130_fd_sc_hd__decap_4
XFILLER_0_625 vssd1 vssd1 vccd1 vccd1 sky130_fd_sc_hd__fill_1
XFILLER_7_1709 vssd1 vssd1 vccd1 vccd1 sky130_fd_sc_hd__decap_3
XFILLER_0_669 vssd1 vssd1 vccd1 vccd1 sky130_fd_sc_hd__decap_3
XANTENNA__1315__CLK clknet_leaf_3_sclk vssd1 vssd1 vccd1 vccd1 sky130_fd_sc_hd__diode_2
XFILLER_5_1488 vssd1 vssd1 vccd1 vccd1 sky130_fd_sc_hd__decap_4
XFILLER_19_1121 vssd1 vssd1 vccd1 vccd1 sky130_fd_sc_hd__fill_2
XFILLER_12_732 vssd1 vssd1 vccd1 vccd1 sky130_fd_sc_hd__decap_4
XFILLER_15_1007 vssd1 vssd1 vccd1 vccd1 sky130_fd_sc_hd__fill_1
XFILLER_12_798 vssd1 vssd1 vccd1 vccd1 sky130_fd_sc_hd__decap_4
XFILLER_8_769 vssd1 vssd1 vccd1 vccd1 sky130_fd_sc_hd__decap_4
XANTENNA__0621__A _0319_ vssd1 vssd1 vccd1 vccd1 sky130_fd_sc_hd__diode_2
XFILLER_3_441 vssd1 vssd1 vccd1 vccd1 sky130_fd_sc_hd__decap_3
XTAP_507 vssd1 vccd1 sky130_fd_sc_hd__tapvpwrvgnd_1
XANTENNA_output259_A net259 vssd1 vssd1 vccd1 vccd1 sky130_fd_sc_hd__diode_2
XTAP_518 vssd1 vccd1 sky130_fd_sc_hd__tapvpwrvgnd_1
XTAP_529 vssd1 vccd1 sky130_fd_sc_hd__tapvpwrvgnd_1
XFILLER_19_375 vssd1 vssd1 vccd1 vccd1 sky130_fd_sc_hd__decap_4
X_1021_ _0537_ vssd1 vssd1 vccd1 vccd1 _0028_ sky130_fd_sc_hd__clkbuf_1
XFILLER_19_397 vssd1 vssd1 vccd1 vccd1 sky130_fd_sc_hd__fill_1
X_0805_ _0419_ sr\[137\] vssd1 vssd1 vccd1 vccd1 _0424_ sky130_fd_sc_hd__and2_1
X_0736_ _0386_ sr\[104\] vssd1 vssd1 vccd1 vccd1 _0388_ sky130_fd_sc_hd__and2_1
X_0667_ _0351_ vssd1 vssd1 vccd1 vccd1 _0116_ sky130_fd_sc_hd__clkbuf_1
X_0598_ _0308_ sr\[39\] vssd1 vssd1 vccd1 vccd1 _0315_ sky130_fd_sc_hd__and2_1
X_1219_ clknet_leaf_8_sclk _0196_ vssd1 vssd1 vccd1 vccd1 sr\[152\] sky130_fd_sc_hd__dfxtp_1
XFILLER_2_1639 vssd1 vssd1 vccd1 vccd1 sky130_fd_sc_hd__decap_6
XANTENNA__1512__D sr\[189\] vssd1 vssd1 vccd1 vccd1 sky130_fd_sc_hd__diode_2
XFILLER_0_1330 vssd1 vssd1 vccd1 vccd1 sky130_fd_sc_hd__decap_4
XFILLER_0_1352 vssd1 vssd1 vccd1 vccd1 sky130_fd_sc_hd__decap_4
XANTENNA__0706__A _0364_ vssd1 vssd1 vccd1 vccd1 sky130_fd_sc_hd__diode_2
XFILLER_16_1305 vssd1 vssd1 vccd1 vccd1 sky130_fd_sc_hd__decap_4
XFILLER_16_1327 vssd1 vssd1 vccd1 vccd1 sky130_fd_sc_hd__decap_8
XFILLER_14_1084 vssd1 vssd1 vccd1 vccd1 sky130_fd_sc_hd__decap_4
XANTENNA_clkbuf_leaf_2_sclk_A clknet_1_0__leaf_sclk vssd1 vssd1 vccd1 vccd1 sky130_fd_sc_hd__diode_2
XFILLER_4_216 vssd1 vssd1 vccd1 vccd1 sky130_fd_sc_hd__decap_4
XFILLER_20_65 vssd1 vssd1 vccd1 vccd1 sky130_fd_sc_hd__fill_1
XFILLER_1_945 vssd1 vssd1 vccd1 vccd1 sky130_fd_sc_hd__decap_6
XFILLER_0_433 vssd1 vssd1 vccd1 vccd1 sky130_ef_sc_hd__decap_12
XFILLER_7_1517 vssd1 vssd1 vccd1 vccd1 sky130_fd_sc_hd__decap_6
XFILLER_0_477 vssd1 vssd1 vccd1 vccd1 sky130_fd_sc_hd__decap_4
XFILLER_1_989 vssd1 vssd1 vccd1 vccd1 sky130_ef_sc_hd__decap_12
XFILLER_5_1230 vssd1 vssd1 vccd1 vccd1 sky130_fd_sc_hd__fill_2
XFILLER_17_835 vssd1 vssd1 vccd1 vccd1 sky130_fd_sc_hd__fill_1
XFILLER_8_533 vssd1 vssd1 vccd1 vccd1 sky130_fd_sc_hd__decap_4
XFILLER_12_595 vssd1 vssd1 vccd1 vccd1 sky130_fd_sc_hd__decap_4
XFILLER_12_1703 vssd1 vssd1 vccd1 vccd1 sky130_fd_sc_hd__decap_4
X_1570_ net288 sr\[247\] vssd1 vssd1 vccd1 vccd1 net167 sky130_fd_sc_hd__dfxtp_1
XFILLER_6_78 vssd1 vssd1 vccd1 vccd1 sky130_fd_sc_hd__decap_6
XFILLER_10_1471 vssd1 vssd1 vccd1 vccd1 sky130_fd_sc_hd__decap_8
XANTENNA_output86_A net86 vssd1 vssd1 vccd1 vccd1 sky130_fd_sc_hd__diode_2
XTAP_304 vssd1 vccd1 sky130_fd_sc_hd__tapvpwrvgnd_1
XTAP_315 vssd1 vccd1 sky130_fd_sc_hd__tapvpwrvgnd_1
XFILLER_10_1482 vssd1 vssd1 vccd1 vccd1 sky130_fd_sc_hd__fill_2
XFILLER_3_293 vssd1 vssd1 vccd1 vccd1 sky130_ef_sc_hd__decap_12
XTAP_326 vssd1 vccd1 sky130_fd_sc_hd__tapvpwrvgnd_1
XTAP_337 vssd1 vccd1 sky130_fd_sc_hd__tapvpwrvgnd_1
XTAP_348 vssd1 vccd1 sky130_fd_sc_hd__tapvpwrvgnd_1
XFILLER_6_1005 vssd1 vssd1 vccd1 vccd1 sky130_fd_sc_hd__decap_4
XTAP_359 vssd1 vccd1 sky130_fd_sc_hd__tapvpwrvgnd_1
XFILLER_6_1049 vssd1 vssd1 vccd1 vccd1 sky130_ef_sc_hd__decap_12
XFILLER_13_3 vssd1 vssd1 vccd1 vccd1 sky130_fd_sc_hd__fill_2
XANTENNA__1332__D sr\[9\] vssd1 vssd1 vccd1 vccd1 sky130_fd_sc_hd__diode_2
XFILLER_19_194 vssd1 vssd1 vccd1 vccd1 sky130_fd_sc_hd__decap_4
XFILLER_1_1650 vssd1 vssd1 vccd1 vccd1 sky130_fd_sc_hd__decap_6
X_1004_ _0528_ vssd1 vssd1 vccd1 vccd1 _0020_ sky130_fd_sc_hd__clkbuf_1
XFILLER_17_1625 vssd1 vssd1 vccd1 vccd1 sky130_fd_sc_hd__fill_2
XANTENNA__1160__CLK clknet_leaf_2_sclk vssd1 vssd1 vccd1 vccd1 sky130_fd_sc_hd__diode_2
XFILLER_1_208 vssd1 vssd1 vccd1 vccd1 sky130_fd_sc_hd__decap_4
XANTENNA__1507__D sr\[184\] vssd1 vssd1 vccd1 vccd1 sky130_fd_sc_hd__diode_2
X_0719_ _0375_ sr\[96\] vssd1 vssd1 vccd1 vccd1 _0379_ sky130_fd_sc_hd__and2_1
XFILLER_2_1436 vssd1 vssd1 vccd1 vccd1 sky130_fd_sc_hd__decap_4
XFILLER_6_1594 vssd1 vssd1 vccd1 vccd1 sky130_fd_sc_hd__fill_2
XFILLER_14_805 vssd1 vssd1 vccd1 vccd1 sky130_fd_sc_hd__decap_6
XFILLER_0_1193 vssd1 vssd1 vccd1 vccd1 sky130_fd_sc_hd__decap_8
XFILLER_13_326 vssd1 vssd1 vccd1 vccd1 sky130_fd_sc_hd__decap_4
XFILLER_13_337 vssd1 vssd1 vccd1 vccd1 sky130_fd_sc_hd__decap_6
XFILLER_13_359 vssd1 vssd1 vccd1 vccd1 sky130_fd_sc_hd__decap_4
XFILLER_15_98 vssd1 vssd1 vccd1 vccd1 sky130_fd_sc_hd__decap_8
Xoutput42 net42 vssd1 vssd1 vccd1 vccd1 dq[134] sky130_fd_sc_hd__buf_2
Xoutput31 net31 vssd1 vssd1 vccd1 vccd1 dq[124] sky130_fd_sc_hd__buf_2
Xoutput20 net20 vssd1 vssd1 vccd1 vccd1 dq[114] sky130_fd_sc_hd__buf_2
Xoutput7 net7 vssd1 vssd1 vccd1 vccd1 dq[102] sky130_fd_sc_hd__buf_2
XANTENNA__1417__D sr\[94\] vssd1 vssd1 vccd1 vccd1 sky130_fd_sc_hd__diode_2
Xoutput75 net75 vssd1 vssd1 vccd1 vccd1 dq[164] sky130_fd_sc_hd__buf_2
Xoutput53 net53 vssd1 vssd1 vccd1 vccd1 dq[144] sky130_fd_sc_hd__buf_2
Xoutput64 net64 vssd1 vssd1 vccd1 vccd1 dq[154] sky130_fd_sc_hd__buf_2
Xoutput97 net97 vssd1 vssd1 vccd1 vccd1 dq[184] sky130_fd_sc_hd__buf_2
Xoutput86 net86 vssd1 vssd1 vccd1 vccd1 dq[174] sky130_fd_sc_hd__buf_2
XFILLER_1_797 vssd1 vssd1 vccd1 vccd1 sky130_ef_sc_hd__decap_12
XANTENNA_output124_A net124 vssd1 vssd1 vccd1 vccd1 sky130_fd_sc_hd__diode_2
XFILLER_17_687 vssd1 vssd1 vccd1 vccd1 sky130_fd_sc_hd__decap_8
XFILLER_16_197 vssd1 vssd1 vccd1 vccd1 sky130_fd_sc_hd__fill_2
XFILLER_20_819 vssd1 vssd1 vccd1 vccd1 sky130_fd_sc_hd__decap_4
XANTENNA__1183__CLK clknet_leaf_8_sclk vssd1 vssd1 vccd1 vccd1 sky130_fd_sc_hd__diode_2
XFILLER_8_341 vssd1 vssd1 vccd1 vccd1 sky130_fd_sc_hd__fill_2
XFILLER_8_363 vssd1 vssd1 vccd1 vccd1 sky130_fd_sc_hd__fill_1
XFILLER_9_864 vssd1 vssd1 vccd1 vccd1 sky130_fd_sc_hd__decap_6
XFILLER_9_886 vssd1 vssd1 vccd1 vccd1 sky130_fd_sc_hd__decap_4
XFILLER_9_897 vssd1 vssd1 vccd1 vccd1 sky130_fd_sc_hd__decap_8
XFILLER_16_1680 vssd1 vssd1 vccd1 vccd1 sky130_fd_sc_hd__decap_4
X_1553_ net283 sr\[230\] vssd1 vssd1 vccd1 vccd1 net149 sky130_fd_sc_hd__dfxtp_1
XTAP_101 vssd1 vccd1 sky130_fd_sc_hd__tapvpwrvgnd_1
XTAP_123 vssd1 vccd1 sky130_fd_sc_hd__tapvpwrvgnd_1
XTAP_112 vssd1 vccd1 sky130_fd_sc_hd__tapvpwrvgnd_1
X_1484_ net278 sr\[161\] vssd1 vssd1 vccd1 vccd1 net72 sky130_fd_sc_hd__dfxtp_1
XTAP_156 vssd1 vccd1 sky130_fd_sc_hd__tapvpwrvgnd_1
XTAP_145 vssd1 vccd1 sky130_fd_sc_hd__tapvpwrvgnd_1
XTAP_134 vssd1 vccd1 sky130_fd_sc_hd__tapvpwrvgnd_1
XTAP_189 vssd1 vccd1 sky130_fd_sc_hd__tapvpwrvgnd_1
XTAP_178 vssd1 vccd1 sky130_fd_sc_hd__tapvpwrvgnd_1
XTAP_167 vssd1 vccd1 sky130_fd_sc_hd__tapvpwrvgnd_1
XFILLER_19_1709 vssd1 vssd1 vccd1 vccd1 sky130_fd_sc_hd__decap_3
XFILLER_17_1433 vssd1 vssd1 vccd1 vccd1 sky130_fd_sc_hd__fill_1
XFILLER_17_1411 vssd1 vssd1 vccd1 vccd1 sky130_fd_sc_hd__decap_4
XFILLER_11_1065 vssd1 vssd1 vccd1 vccd1 sky130_ef_sc_hd__decap_12
XANTENNA__1237__D _0214_ vssd1 vssd1 vccd1 vccd1 sky130_fd_sc_hd__diode_2
XFILLER_7_8 vssd1 vssd1 vccd1 vccd1 sky130_fd_sc_hd__decap_4
XFILLER_8_1623 vssd1 vssd1 vccd1 vccd1 sky130_fd_sc_hd__decap_4
XTAP_690 vssd1 vccd1 sky130_fd_sc_hd__tapvpwrvgnd_1
XFILLER_18_418 vssd1 vssd1 vccd1 vccd1 sky130_fd_sc_hd__fill_2
XFILLER_6_1391 vssd1 vssd1 vccd1 vccd1 sky130_fd_sc_hd__decap_6
XFILLER_9_105 vssd1 vssd1 vccd1 vccd1 sky130_fd_sc_hd__decap_6
XFILLER_13_178 vssd1 vssd1 vccd1 vccd1 sky130_fd_sc_hd__decap_4
XFILLER_6_867 vssd1 vssd1 vccd1 vccd1 sky130_fd_sc_hd__fill_1
XFILLER_5_388 vssd1 vssd1 vccd1 vccd1 sky130_fd_sc_hd__decap_4
XFILLER_1_561 vssd1 vssd1 vccd1 vccd1 sky130_ef_sc_hd__decap_12
XFILLER_3_79 vssd1 vssd1 vccd1 vccd1 sky130_ef_sc_hd__decap_12
XFILLER_3_57 vssd1 vssd1 vccd1 vccd1 sky130_ef_sc_hd__decap_12
XFILLER_1_594 vssd1 vssd1 vccd1 vccd1 sky130_fd_sc_hd__decap_4
XFILLER_7_1177 vssd1 vssd1 vccd1 vccd1 sky130_fd_sc_hd__fill_2
XFILLER_7_1199 vssd1 vssd1 vccd1 vccd1 sky130_ef_sc_hd__decap_12
XFILLER_18_941 vssd1 vssd1 vccd1 vccd1 sky130_fd_sc_hd__fill_1
XFILLER_18_974 vssd1 vssd1 vccd1 vccd1 sky130_fd_sc_hd__decap_6
XFILLER_9_661 vssd1 vssd1 vccd1 vccd1 sky130_fd_sc_hd__decap_6
X_0984_ _0508_ sr\[222\] vssd1 vssd1 vccd1 vccd1 _0518_ sky130_fd_sc_hd__and2_1
XFILLER_13_690 vssd1 vssd1 vccd1 vccd1 sky130_fd_sc_hd__fill_1
XFILLER_12_1330 vssd1 vssd1 vccd1 vccd1 sky130_fd_sc_hd__decap_6
XFILLER_12_1363 vssd1 vssd1 vccd1 vccd1 sky130_fd_sc_hd__fill_1
XFILLER_12_1385 vssd1 vssd1 vccd1 vccd1 sky130_fd_sc_hd__fill_1
X_1536_ net284 sr\[213\] vssd1 vssd1 vccd1 vccd1 net130 sky130_fd_sc_hd__dfxtp_1
X_1467_ net276 sr\[144\] vssd1 vssd1 vccd1 vccd1 net53 sky130_fd_sc_hd__dfxtp_1
X_1398_ net267 sr\[75\] vssd1 vssd1 vccd1 vccd1 net232 sky130_fd_sc_hd__dfxtp_1
XANTENNA_output9_A net9 vssd1 vssd1 vccd1 vccd1 sky130_fd_sc_hd__diode_2
XFILLER_11_605 vssd1 vssd1 vccd1 vccd1 sky130_fd_sc_hd__decap_4
XFILLER_13_1149 vssd1 vssd1 vccd1 vccd1 sky130_fd_sc_hd__decap_4
XFILLER_12_77 vssd1 vssd1 vccd1 vccd1 sky130_fd_sc_hd__decap_6
XFILLER_8_1420 vssd1 vssd1 vccd1 vccd1 sky130_fd_sc_hd__decap_4
XFILLER_4_1317 vssd1 vssd1 vccd1 vccd1 sky130_fd_sc_hd__decap_6
XFILLER_8_1497 vssd1 vssd1 vccd1 vccd1 sky130_fd_sc_hd__decap_6
XFILLER_2_1041 vssd1 vssd1 vccd1 vccd1 sky130_ef_sc_hd__decap_12
XFILLER_14_421 vssd1 vssd1 vccd1 vccd1 sky130_fd_sc_hd__decap_4
XFILLER_14_454 vssd1 vssd1 vccd1 vccd1 sky130_fd_sc_hd__decap_4
XANTENNA_output191_A net191 vssd1 vssd1 vccd1 vccd1 sky130_fd_sc_hd__diode_2
XANTENNA__1221__CLK clknet_leaf_6_sclk vssd1 vssd1 vccd1 vccd1 sky130_fd_sc_hd__diode_2
XFILLER_2_881 vssd1 vssd1 vccd1 vccd1 sky130_ef_sc_hd__decap_12
XFILLER_1_380 vssd1 vssd1 vccd1 vccd1 sky130_ef_sc_hd__decap_12
X_1321_ clknet_leaf_8_sclk _0042_ vssd1 vssd1 vccd1 vccd1 sr\[254\] sky130_fd_sc_hd__dfxtp_2
X_1252_ clknet_leaf_7_sclk _0229_ vssd1 vssd1 vccd1 vccd1 sr\[185\] sky130_fd_sc_hd__dfxtp_1
X_1183_ clknet_leaf_8_sclk _0160_ vssd1 vssd1 vccd1 vccd1 sr\[116\] sky130_fd_sc_hd__dfxtp_1
XFILLER_20_1643 vssd1 vssd1 vccd1 vccd1 sky130_fd_sc_hd__decap_4
XFILLER_20_1687 vssd1 vssd1 vccd1 vccd1 sky130_fd_sc_hd__decap_4
XFILLER_18_782 vssd1 vssd1 vccd1 vccd1 sky130_fd_sc_hd__decap_4
XFILLER_17_281 vssd1 vssd1 vccd1 vccd1 sky130_fd_sc_hd__decap_3
XFILLER_20_402 vssd1 vssd1 vccd1 vccd1 sky130_fd_sc_hd__decap_4
XFILLER_20_446 vssd1 vssd1 vccd1 vccd1 sky130_fd_sc_hd__fill_2
XFILLER_18_1594 vssd1 vssd1 vccd1 vccd1 sky130_fd_sc_hd__fill_2
X_0967_ _0509_ vssd1 vssd1 vccd1 vccd1 _0002_ sky130_fd_sc_hd__clkbuf_1
XFILLER_9_480 vssd1 vssd1 vccd1 vccd1 sky130_fd_sc_hd__decap_6
Xoutput210 net210 vssd1 vssd1 vccd1 vccd1 dq[55] sky130_fd_sc_hd__buf_2
X_0898_ _0464_ sr\[181\] vssd1 vssd1 vccd1 vccd1 _0473_ sky130_fd_sc_hd__and2_1
XFILLER_12_1160 vssd1 vssd1 vccd1 vccd1 sky130_fd_sc_hd__decap_4
Xoutput221 net221 vssd1 vssd1 vccd1 vccd1 dq[65] sky130_fd_sc_hd__buf_2
Xoutput243 net243 vssd1 vssd1 vccd1 vccd1 dq[85] sky130_fd_sc_hd__buf_2
Xoutput232 net232 vssd1 vssd1 vccd1 vccd1 dq[75] sky130_fd_sc_hd__buf_2
Xoutput254 net254 vssd1 vssd1 vccd1 vccd1 dq[95] sky130_fd_sc_hd__buf_2
X_1519_ net290 sr\[196\] vssd1 vssd1 vccd1 vccd1 net110 sky130_fd_sc_hd__dfxtp_1
XANTENNA__1515__D sr\[192\] vssd1 vssd1 vccd1 vccd1 sky130_fd_sc_hd__diode_2
XFILLER_5_1659 vssd1 vssd1 vccd1 vccd1 sky130_fd_sc_hd__decap_8
XFILLER_19_1303 vssd1 vssd1 vccd1 vccd1 sky130_fd_sc_hd__decap_4
XANTENNA__1250__D _0227_ vssd1 vssd1 vccd1 vccd1 sky130_fd_sc_hd__diode_2
XFILLER_15_229 vssd1 vssd1 vccd1 vccd1 sky130_fd_sc_hd__decap_8
XFILLER_11_424 vssd1 vssd1 vccd1 vccd1 sky130_fd_sc_hd__decap_6
XFILLER_12_925 vssd1 vssd1 vccd1 vccd1 sky130_fd_sc_hd__fill_2
XANTENNA__1244__CLK clknet_leaf_5_sclk vssd1 vssd1 vccd1 vccd1 sky130_fd_sc_hd__diode_2
XFILLER_3_612 vssd1 vssd1 vccd1 vccd1 sky130_fd_sc_hd__decap_4
XANTENNA__1394__CLK net277 vssd1 vssd1 vccd1 vccd1 sky130_fd_sc_hd__diode_2
XFILLER_2_133 vssd1 vssd1 vccd1 vccd1 sky130_fd_sc_hd__decap_6
XFILLER_8_1261 vssd1 vssd1 vccd1 vccd1 sky130_fd_sc_hd__decap_6
XFILLER_4_1125 vssd1 vssd1 vccd1 vccd1 sky130_ef_sc_hd__decap_12
XANTENNA__0619__A _0319_ vssd1 vssd1 vccd1 vccd1 sky130_fd_sc_hd__diode_2
XFILLER_0_14 vssd1 vssd1 vccd1 vccd1 sky130_ef_sc_hd__decap_12
XFILLER_15_741 vssd1 vssd1 vccd1 vccd1 sky130_fd_sc_hd__decap_4
XFILLER_15_785 vssd1 vssd1 vccd1 vccd1 sky130_fd_sc_hd__fill_2
X_0821_ _0432_ vssd1 vssd1 vccd1 vccd1 _0189_ sky130_fd_sc_hd__dlymetal6s2s_1
XFILLER_7_951 vssd1 vssd1 vccd1 vccd1 sky130_fd_sc_hd__fill_1
XFILLER_11_991 vssd1 vssd1 vccd1 vccd1 sky130_fd_sc_hd__decap_4
X_0752_ _0386_ sr\[112\] vssd1 vssd1 vccd1 vccd1 _0396_ sky130_fd_sc_hd__and2_1
X_0683_ _0353_ sr\[79\] vssd1 vssd1 vccd1 vccd1 _0360_ sky130_fd_sc_hd__and2_1
XANTENNA__0801__B sr\[135\] vssd1 vssd1 vccd1 vccd1 sky130_fd_sc_hd__diode_2
XFILLER_9_1047 vssd1 vssd1 vccd1 vccd1 sky130_ef_sc_hd__decap_12
X_1304_ clknet_leaf_7_sclk _0025_ vssd1 vssd1 vccd1 vccd1 sr\[237\] sky130_fd_sc_hd__dfxtp_1
X_1235_ clknet_leaf_6_sclk _0212_ vssd1 vssd1 vccd1 vccd1 sr\[168\] sky130_fd_sc_hd__dfxtp_1
XANTENNA__1117__CLK clknet_leaf_0_sclk vssd1 vssd1 vccd1 vccd1 sky130_fd_sc_hd__diode_2
X_1166_ clknet_leaf_2_sclk _0143_ vssd1 vssd1 vccd1 vccd1 sr\[99\] sky130_fd_sc_hd__dfxtp_1
XFILLER_20_1451 vssd1 vssd1 vccd1 vccd1 sky130_fd_sc_hd__decap_4
XFILLER_0_1545 vssd1 vssd1 vccd1 vccd1 sky130_fd_sc_hd__decap_4
X_1097_ clknet_leaf_1_sclk _0074_ vssd1 vssd1 vccd1 vccd1 sr\[30\] sky130_fd_sc_hd__dfxtp_2
XANTENNA__1267__CLK clknet_leaf_6_sclk vssd1 vssd1 vccd1 vccd1 sky130_fd_sc_hd__diode_2
XFILLER_16_1509 vssd1 vssd1 vccd1 vccd1 sky130_fd_sc_hd__decap_4
XFILLER_14_1200 vssd1 vssd1 vccd1 vccd1 sky130_fd_sc_hd__decap_4
XFILLER_18_1391 vssd1 vssd1 vccd1 vccd1 sky130_fd_sc_hd__decap_4
XFILLER_14_1222 vssd1 vssd1 vccd1 vccd1 sky130_fd_sc_hd__fill_1
XFILLER_20_298 vssd1 vssd1 vccd1 vccd1 sky130_fd_sc_hd__decap_4
XFILLER_14_1255 vssd1 vssd1 vccd1 vccd1 sky130_fd_sc_hd__decap_4
XANTENNA__1245__D _0222_ vssd1 vssd1 vccd1 vccd1 sky130_fd_sc_hd__diode_2
XFILLER_5_1401 vssd1 vssd1 vccd1 vccd1 sky130_fd_sc_hd__decap_3
XFILLER_5_1412 vssd1 vssd1 vccd1 vccd1 sky130_fd_sc_hd__decap_4
XFILLER_5_1478 vssd1 vssd1 vccd1 vccd1 sky130_fd_sc_hd__decap_4
XFILLER_16_549 vssd1 vssd1 vccd1 vccd1 sky130_fd_sc_hd__fill_1
XFILLER_19_1177 vssd1 vssd1 vccd1 vccd1 sky130_fd_sc_hd__fill_2
XFILLER_11_221 vssd1 vssd1 vccd1 vccd1 sky130_fd_sc_hd__decap_3
XFILLER_7_225 vssd1 vssd1 vccd1 vccd1 sky130_fd_sc_hd__fill_2
XANTENNA__0902__A _0441_ vssd1 vssd1 vccd1 vccd1 sky130_fd_sc_hd__diode_2
XANTENNA__0621__B sr\[50\] vssd1 vssd1 vccd1 vccd1 sky130_fd_sc_hd__diode_2
XFILLER_10_1653 vssd1 vssd1 vccd1 vccd1 sky130_fd_sc_hd__fill_2
XFILLER_4_998 vssd1 vssd1 vccd1 vccd1 sky130_ef_sc_hd__decap_12
XTAP_508 vssd1 vccd1 sky130_fd_sc_hd__tapvpwrvgnd_1
XTAP_519 vssd1 vccd1 sky130_fd_sc_hd__tapvpwrvgnd_1
XFILLER_8_1091 vssd1 vssd1 vccd1 vccd1 sky130_fd_sc_hd__fill_1
XFILLER_19_343 vssd1 vssd1 vccd1 vccd1 sky130_fd_sc_hd__decap_8
X_1020_ _0530_ sr\[239\] vssd1 vssd1 vccd1 vccd1 _0537_ sky130_fd_sc_hd__and2_1
XFILLER_15_1564 vssd1 vssd1 vccd1 vccd1 sky130_fd_sc_hd__decap_4
X_0804_ _0423_ vssd1 vssd1 vccd1 vccd1 _0181_ sky130_fd_sc_hd__clkbuf_1
X_0735_ _0387_ vssd1 vssd1 vccd1 vccd1 _0148_ sky130_fd_sc_hd__clkbuf_1
XFILLER_7_792 vssd1 vssd1 vccd1 vccd1 sky130_fd_sc_hd__decap_8
X_0666_ _0342_ sr\[71\] vssd1 vssd1 vccd1 vccd1 _0351_ sky130_fd_sc_hd__and2_1
X_0597_ _0314_ vssd1 vssd1 vccd1 vccd1 _0083_ sky130_fd_sc_hd__clkbuf_1
XFILLER_2_1618 vssd1 vssd1 vccd1 vccd1 sky130_fd_sc_hd__decap_4
X_1218_ clknet_leaf_8_sclk _0195_ vssd1 vssd1 vccd1 vccd1 sr\[151\] sky130_fd_sc_hd__dfxtp_2
X_1149_ clknet_leaf_2_sclk _0126_ vssd1 vssd1 vccd1 vccd1 sr\[82\] sky130_fd_sc_hd__dfxtp_1
XFILLER_0_1364 vssd1 vssd1 vccd1 vccd1 sky130_fd_sc_hd__decap_4
XFILLER_0_1342 vssd1 vssd1 vccd1 vccd1 sky130_fd_sc_hd__fill_2
XFILLER_0_1386 vssd1 vssd1 vccd1 vccd1 sky130_fd_sc_hd__decap_4
XFILLER_16_1317 vssd1 vssd1 vccd1 vccd1 sky130_fd_sc_hd__fill_2
XFILLER_5_729 vssd1 vssd1 vccd1 vccd1 sky130_ef_sc_hd__decap_12
XFILLER_0_445 vssd1 vssd1 vccd1 vccd1 sky130_fd_sc_hd__decap_3
XANTENNA__1432__CLK net274 vssd1 vssd1 vccd1 vccd1 sky130_fd_sc_hd__diode_2
XFILLER_17_814 vssd1 vssd1 vccd1 vccd1 sky130_fd_sc_hd__fill_1
XFILLER_5_1286 vssd1 vssd1 vccd1 vccd1 sky130_fd_sc_hd__fill_2
XFILLER_17_847 vssd1 vssd1 vccd1 vccd1 sky130_fd_sc_hd__fill_1
XANTENNA__1582__CLK clknet_leaf_0_sclk vssd1 vssd1 vccd1 vccd1 sky130_fd_sc_hd__diode_2
XFILLER_12_530 vssd1 vssd1 vccd1 vccd1 sky130_fd_sc_hd__fill_2
XFILLER_8_501 vssd1 vssd1 vccd1 vccd1 sky130_ef_sc_hd__decap_12
XFILLER_12_563 vssd1 vssd1 vccd1 vccd1 sky130_fd_sc_hd__decap_4
XFILLER_8_556 vssd1 vssd1 vccd1 vccd1 sky130_fd_sc_hd__decap_4
XFILLER_8_589 vssd1 vssd1 vccd1 vccd1 sky130_fd_sc_hd__fill_2
XFILLER_3_261 vssd1 vssd1 vccd1 vccd1 sky130_ef_sc_hd__decap_12
XTAP_305 vssd1 vccd1 sky130_fd_sc_hd__tapvpwrvgnd_1
XFILLER_10_1494 vssd1 vssd1 vccd1 vccd1 sky130_fd_sc_hd__fill_1
XANTENNA_output79_A net79 vssd1 vssd1 vccd1 vccd1 sky130_fd_sc_hd__diode_2
XTAP_316 vssd1 vccd1 sky130_fd_sc_hd__tapvpwrvgnd_1
XTAP_327 vssd1 vccd1 sky130_fd_sc_hd__tapvpwrvgnd_1
XTAP_338 vssd1 vccd1 sky130_fd_sc_hd__tapvpwrvgnd_1
XTAP_349 vssd1 vccd1 sky130_fd_sc_hd__tapvpwrvgnd_1
XFILLER_19_173 vssd1 vssd1 vccd1 vccd1 sky130_fd_sc_hd__decap_4
X_1003_ _0519_ sr\[231\] vssd1 vssd1 vccd1 vccd1 _0528_ sky130_fd_sc_hd__and2_1
XANTENNA__0807__A _0419_ vssd1 vssd1 vccd1 vccd1 sky130_fd_sc_hd__diode_2
XFILLER_16_880 vssd1 vssd1 vccd1 vccd1 sky130_fd_sc_hd__decap_4
XFILLER_17_1615 vssd1 vssd1 vccd1 vccd1 sky130_fd_sc_hd__decap_4
XFILLER_15_390 vssd1 vssd1 vccd1 vccd1 sky130_fd_sc_hd__fill_2
XANTENNA__1305__CLK clknet_leaf_5_sclk vssd1 vssd1 vccd1 vccd1 sky130_fd_sc_hd__diode_2
XFILLER_15_1361 vssd1 vssd1 vccd1 vccd1 sky130_fd_sc_hd__decap_4
X_0718_ _0378_ vssd1 vssd1 vccd1 vccd1 _0140_ sky130_fd_sc_hd__clkbuf_1
X_0649_ _0330_ vssd1 vssd1 vccd1 vccd1 _0342_ sky130_fd_sc_hd__clkbuf_4