*SPEF "ieee 1481-1999"
*DESIGN "cfgsr"
*DATE "11:11:11 Fri 11 11, 1111"
*VENDOR "OpenRCX"
*PROGRAM "Parallel Extraction"
*VERSION "1.0"
*DESIGN_FLOW "NAME_SCOPE LOCAL" "PIN_CAP NONE"
*DIVIDER /
*DELIMITER :
*BUS_DELIMITER []
*T_UNIT 1 NS
*C_UNIT 1 PF
*R_UNIT 1 OHM
*L_UNIT 1 HENRY

*NAME_MAP
*1 dq[0]
*2 dq[100]
*3 dq[101]
*4 dq[102]
*5 dq[103]
*6 dq[104]
*7 dq[105]
*8 dq[106]
*9 dq[107]
*10 dq[108]
*11 dq[109]
*12 dq[10]
*13 dq[110]
*14 dq[111]
*15 dq[112]
*16 dq[113]
*17 dq[114]
*18 dq[115]
*19 dq[116]
*20 dq[117]
*21 dq[118]
*22 dq[119]
*23 dq[11]
*24 dq[120]
*25 dq[121]
*26 dq[122]
*27 dq[123]
*28 dq[124]
*29 dq[125]
*30 dq[126]
*31 dq[127]
*32 dq[128]
*33 dq[129]
*34 dq[12]
*35 dq[130]
*36 dq[131]
*37 dq[132]
*38 dq[133]
*39 dq[134]
*40 dq[135]
*41 dq[136]
*42 dq[137]
*43 dq[138]
*44 dq[139]
*45 dq[13]
*46 dq[140]
*47 dq[141]
*48 dq[142]
*49 dq[143]
*50 dq[144]
*51 dq[145]
*52 dq[146]
*53 dq[147]
*54 dq[148]
*55 dq[149]
*56 dq[14]
*57 dq[150]
*58 dq[151]
*59 dq[152]
*60 dq[153]
*61 dq[154]
*62 dq[155]
*63 dq[156]
*64 dq[157]
*65 dq[158]
*66 dq[159]
*67 dq[15]
*68 dq[160]
*69 dq[161]
*70 dq[162]
*71 dq[163]
*72 dq[164]
*73 dq[165]
*74 dq[166]
*75 dq[167]
*76 dq[168]
*77 dq[169]
*78 dq[16]
*79 dq[170]
*80 dq[171]
*81 dq[172]
*82 dq[173]
*83 dq[174]
*84 dq[175]
*85 dq[176]
*86 dq[177]
*87 dq[178]
*88 dq[179]
*89 dq[17]
*90 dq[180]
*91 dq[181]
*92 dq[182]
*93 dq[183]
*94 dq[184]
*95 dq[185]
*96 dq[186]
*97 dq[187]
*98 dq[188]
*99 dq[189]
*100 dq[18]
*101 dq[190]
*102 dq[191]
*103 dq[192]
*104 dq[193]
*105 dq[194]
*106 dq[195]
*107 dq[196]
*108 dq[197]
*109 dq[198]
*110 dq[199]
*111 dq[19]
*112 dq[1]
*113 dq[200]
*114 dq[201]
*115 dq[202]
*116 dq[203]
*117 dq[204]
*118 dq[205]
*119 dq[206]
*120 dq[207]
*121 dq[208]
*122 dq[209]
*123 dq[20]
*124 dq[210]
*125 dq[211]
*126 dq[212]
*127 dq[213]
*128 dq[214]
*129 dq[215]
*130 dq[216]
*131 dq[217]
*132 dq[218]
*133 dq[219]
*134 dq[21]
*135 dq[220]
*136 dq[221]
*137 dq[222]
*138 dq[223]
*139 dq[224]
*140 dq[225]
*141 dq[226]
*142 dq[227]
*143 dq[228]
*144 dq[229]
*145 dq[22]
*146 dq[230]
*147 dq[231]
*148 dq[232]
*149 dq[233]
*150 dq[234]
*151 dq[235]
*152 dq[236]
*153 dq[237]
*154 dq[238]
*155 dq[239]
*156 dq[23]
*157 dq[240]
*158 dq[241]
*159 dq[242]
*160 dq[243]
*161 dq[244]
*162 dq[245]
*163 dq[246]
*164 dq[247]
*165 dq[248]
*166 dq[249]
*167 dq[24]
*168 dq[250]
*169 dq[251]
*170 dq[252]
*171 dq[253]
*172 dq[254]
*173 dq[255]
*174 dq[25]
*175 dq[26]
*176 dq[27]
*177 dq[28]
*178 dq[29]
*179 dq[2]
*180 dq[30]
*181 dq[31]
*182 dq[32]
*183 dq[33]
*184 dq[34]
*185 dq[35]
*186 dq[36]
*187 dq[37]
*188 dq[38]
*189 dq[39]
*190 dq[3]
*191 dq[40]
*192 dq[41]
*193 dq[42]
*194 dq[43]
*195 dq[44]
*196 dq[45]
*197 dq[46]
*198 dq[47]
*199 dq[48]
*200 dq[49]
*201 dq[4]
*202 dq[50]
*203 dq[51]
*204 dq[52]
*205 dq[53]
*206 dq[54]
*207 dq[55]
*208 dq[56]
*209 dq[57]
*210 dq[58]
*211 dq[59]
*212 dq[5]
*213 dq[60]
*214 dq[61]
*215 dq[62]
*216 dq[63]
*217 dq[64]
*218 dq[65]
*219 dq[66]
*220 dq[67]
*221 dq[68]
*222 dq[69]
*223 dq[6]
*224 dq[70]
*225 dq[71]
*226 dq[72]
*227 dq[73]
*228 dq[74]
*229 dq[75]
*230 dq[76]
*231 dq[77]
*232 dq[78]
*233 dq[79]
*234 dq[7]
*235 dq[80]
*236 dq[81]
*237 dq[82]
*238 dq[83]
*239 dq[84]
*240 dq[85]
*241 dq[86]
*242 dq[87]
*243 dq[88]
*244 dq[89]
*245 dq[8]
*246 dq[90]
*247 dq[91]
*248 dq[92]
*249 dq[93]
*250 dq[94]
*251 dq[95]
*252 dq[96]
*253 dq[97]
*254 dq[98]
*255 dq[99]
*256 dq[9]
*257 latch
*258 rst_n
*259 sclk
*260 sdi
*261 sdo
*264 _0000_
*265 _0001_
*266 _0002_
*267 _0003_
*268 _0004_
*269 _0005_
*270 _0006_
*271 _0007_
*272 _0008_
*273 _0009_
*274 _0010_
*275 _0011_
*276 _0012_
*277 _0013_
*278 _0014_
*279 _0015_
*280 _0016_
*281 _0017_
*282 _0018_
*283 _0019_
*284 _0020_
*285 _0021_
*286 _0022_
*287 _0023_
*288 _0024_
*289 _0025_
*290 _0026_
*291 _0027_
*292 _0028_
*293 _0029_
*294 _0030_
*295 _0031_
*296 _0032_
*297 _0033_
*298 _0034_
*299 _0035_
*300 _0036_
*301 _0037_
*302 _0038_
*303 _0039_
*304 _0040_
*305 _0041_
*306 _0042_
*307 _0043_
*308 _0044_
*309 _0045_
*310 _0046_
*311 _0047_
*312 _0048_
*313 _0049_
*314 _0050_
*315 _0051_
*316 _0052_
*317 _0053_
*318 _0054_
*319 _0055_
*320 _0056_
*321 _0057_
*322 _0058_
*323 _0059_
*324 _0060_
*325 _0061_
*326 _0062_
*327 _0063_
*328 _0064_
*329 _0065_
*330 _0066_
*331 _0067_
*332 _0068_
*333 _0069_
*334 _0070_
*335 _0071_
*336 _0072_
*337 _0073_
*338 _0074_
*339 _0075_
*340 _0076_
*341 _0077_
*342 _0078_
*343 _0079_
*344 _0080_
*345 _0081_
*346 _0082_
*347 _0083_
*348 _0084_
*349 _0085_
*350 _0086_
*351 _0087_
*352 _0088_
*353 _0089_
*354 _0090_
*355 _0091_
*356 _0092_
*357 _0093_
*358 _0094_
*359 _0095_
*360 _0096_
*361 _0097_
*362 _0098_
*363 _0099_
*364 _0100_
*365 _0101_
*366 _0102_
*367 _0103_
*368 _0104_
*369 _0105_
*370 _0106_
*371 _0107_
*372 _0108_
*373 _0109_
*374 _0110_
*375 _0111_
*376 _0112_
*377 _0113_
*378 _0114_
*379 _0115_
*380 _0116_
*381 _0117_
*382 _0118_
*383 _0119_
*384 _0120_
*385 _0121_
*386 _0122_
*387 _0123_
*388 _0124_
*389 _0125_
*390 _0126_
*391 _0127_
*392 _0128_
*393 _0129_
*394 _0130_
*395 _0131_
*396 _0132_
*397 _0133_
*398 _0134_
*399 _0135_
*400 _0136_
*401 _0137_
*402 _0138_
*403 _0139_
*404 _0140_
*405 _0141_
*406 _0142_
*407 _0143_
*408 _0144_
*409 _0145_
*410 _0146_
*411 _0147_
*412 _0148_
*413 _0149_
*414 _0150_
*415 _0151_
*416 _0152_
*417 _0153_
*418 _0154_
*419 _0155_
*420 _0156_
*421 _0157_
*422 _0158_
*423 _0159_
*424 _0160_
*425 _0161_
*426 _0162_
*427 _0163_
*428 _0164_
*429 _0165_
*430 _0166_
*431 _0167_
*432 _0168_
*433 _0169_
*434 _0170_
*435 _0171_
*436 _0172_
*437 _0173_
*438 _0174_
*439 _0175_
*440 _0176_
*441 _0177_
*442 _0178_
*443 _0179_
*444 _0180_
*445 _0181_
*446 _0182_
*447 _0183_
*448 _0184_
*449 _0185_
*450 _0186_
*451 _0187_
*452 _0188_
*453 _0189_
*454 _0190_
*455 _0191_
*456 _0192_
*457 _0193_
*458 _0194_
*459 _0195_
*460 _0196_
*461 _0197_
*462 _0198_
*463 _0199_
*464 _0200_
*465 _0201_
*466 _0202_
*467 _0203_
*468 _0204_
*469 _0205_
*470 _0206_
*471 _0207_
*472 _0208_
*473 _0209_
*474 _0210_
*475 _0211_
*476 _0212_
*477 _0213_
*478 _0214_
*479 _0215_
*480 _0216_
*481 _0217_
*482 _0218_
*483 _0219_
*484 _0220_
*485 _0221_
*486 _0222_
*487 _0223_
*488 _0224_
*489 _0225_
*490 _0226_
*491 _0227_
*492 _0228_
*493 _0229_
*494 _0230_
*495 _0231_
*496 _0232_
*497 _0233_
*498 _0234_
*499 _0235_
*500 _0236_
*501 _0237_
*502 _0238_
*503 _0239_
*504 _0240_
*505 _0241_
*506 _0242_
*507 _0243_
*508 _0244_
*509 _0245_
*510 _0246_
*511 _0247_
*512 _0248_
*513 _0249_
*514 _0250_
*515 _0251_
*516 _0252_
*517 _0253_
*518 _0254_
*519 _0255_
*520 _0256_
*521 _0257_
*522 _0258_
*523 _0259_
*524 _0260_
*525 _0261_
*526 _0262_
*527 _0263_
*528 _0264_
*529 _0265_
*530 _0266_
*531 _0267_
*532 _0268_
*533 _0269_
*534 _0270_
*535 _0271_
*536 _0272_
*537 _0273_
*538 _0274_
*539 _0275_
*540 _0276_
*541 _0277_
*542 _0278_
*543 _0279_
*544 _0280_
*545 _0281_
*546 _0282_
*547 _0283_
*548 _0284_
*549 _0285_
*550 _0286_
*551 _0287_
*552 _0288_
*553 _0289_
*554 _0290_
*555 _0291_
*556 _0292_
*557 _0293_
*558 _0294_
*559 _0295_
*560 _0296_
*561 _0297_
*562 _0298_
*563 _0299_
*564 _0300_
*565 _0301_
*566 _0302_
*567 _0303_
*568 _0304_
*569 _0305_
*570 _0306_
*571 _0307_
*572 _0308_
*573 _0309_
*574 _0310_
*575 _0311_
*576 _0312_
*577 _0313_
*578 _0314_
*579 _0315_
*580 _0316_
*581 _0317_
*582 _0318_
*583 _0319_
*584 _0320_
*585 _0321_
*586 _0322_
*587 _0323_
*588 _0324_
*589 _0325_
*590 _0326_
*591 _0327_
*592 _0328_
*593 _0329_
*594 _0330_
*595 _0331_
*596 _0332_
*597 _0333_
*598 _0334_
*599 _0335_
*600 _0336_
*601 _0337_
*602 _0338_
*603 _0339_
*604 _0340_
*605 _0341_
*606 _0342_
*607 _0343_
*608 _0344_
*609 _0345_
*610 _0346_
*611 _0347_
*612 _0348_
*613 _0349_
*614 _0350_
*615 _0351_
*616 _0352_
*617 _0353_
*618 _0354_
*619 _0355_
*620 _0356_
*621 _0357_
*622 _0358_
*623 _0359_
*624 _0360_
*625 _0361_
*626 _0362_
*627 _0363_
*628 _0364_
*629 _0365_
*630 _0366_
*631 _0367_
*632 _0368_
*633 _0369_
*634 _0370_
*635 _0371_
*636 _0372_
*637 _0373_
*638 _0374_
*639 _0375_
*640 _0376_
*641 _0377_
*642 _0378_
*643 _0379_
*644 _0380_
*645 _0381_
*646 _0382_
*647 _0383_
*648 _0384_
*649 _0385_
*650 _0386_
*651 _0387_
*652 _0388_
*653 _0389_
*654 _0390_
*655 _0391_
*656 _0392_
*657 _0393_
*658 _0394_
*659 _0395_
*660 _0396_
*661 _0397_
*662 _0398_
*663 _0399_
*664 _0400_
*665 _0401_
*666 _0402_
*667 _0403_
*668 _0404_
*669 _0405_
*670 _0406_
*671 _0407_
*672 _0408_
*673 _0409_
*674 _0410_
*675 _0411_
*676 _0412_
*677 _0413_
*678 _0414_
*679 _0415_
*680 _0416_
*681 _0417_
*682 _0418_
*683 _0419_
*684 _0420_
*685 _0421_
*686 _0422_
*687 _0423_
*688 _0424_
*689 _0425_
*690 _0426_
*691 _0427_
*692 _0428_
*693 _0429_
*694 _0430_
*695 _0431_
*696 _0432_
*697 _0433_
*698 _0434_
*699 _0435_
*700 _0436_
*701 _0437_
*702 _0438_
*703 _0439_
*704 _0440_
*705 _0441_
*706 _0442_
*707 _0443_
*708 _0444_
*709 _0445_
*710 _0446_
*711 _0447_
*712 _0448_
*713 _0449_
*714 _0450_
*715 _0451_
*716 _0452_
*717 _0453_
*718 _0454_
*719 _0455_
*720 _0456_
*721 _0457_
*722 _0458_
*723 _0459_
*724 _0460_
*725 _0461_
*726 _0462_
*727 _0463_
*728 _0464_
*729 _0465_
*730 _0466_
*731 _0467_
*732 _0468_
*733 _0469_
*734 _0470_
*735 _0471_
*736 _0472_
*737 _0473_
*738 _0474_
*739 _0475_
*740 _0476_
*741 _0477_
*742 _0478_
*743 _0479_
*744 _0480_
*745 _0481_
*746 _0482_
*747 _0483_
*748 _0484_
*749 _0485_
*750 _0486_
*751 _0487_
*752 _0488_
*753 _0489_
*754 _0490_
*755 _0491_
*756 _0492_
*757 _0493_
*758 _0494_
*759 _0495_
*760 _0496_
*761 _0497_
*762 _0498_
*763 _0499_
*764 _0500_
*765 _0501_
*766 _0502_
*767 _0503_
*768 _0504_
*769 _0505_
*770 _0506_
*771 _0507_
*772 _0508_
*773 _0509_
*774 _0510_
*775 _0511_
*776 _0512_
*777 _0513_
*778 _0514_
*779 _0515_
*780 _0516_
*781 _0517_
*782 _0518_
*783 _0519_
*784 _0520_
*785 _0521_
*786 _0522_
*787 _0523_
*788 _0524_
*789 _0525_
*790 _0526_
*791 _0527_
*792 _0528_
*793 _0529_
*794 _0530_
*795 _0531_
*796 _0532_
*797 _0533_
*798 _0534_
*799 _0535_
*800 _0536_
*801 _0537_
*802 _0538_
*803 _0539_
*804 clknet_0_sclk
*805 clknet_1_0__leaf_sclk
*806 clknet_1_1__leaf_sclk
*807 clknet_leaf_0_sclk
*808 clknet_leaf_10_sclk
*809 clknet_leaf_1_sclk
*810 clknet_leaf_2_sclk
*811 clknet_leaf_3_sclk
*812 clknet_leaf_4_sclk
*813 clknet_leaf_5_sclk
*814 clknet_leaf_6_sclk
*815 clknet_leaf_7_sclk
*816 clknet_leaf_8_sclk
*817 clknet_leaf_9_sclk
*818 net1
*819 net10
*820 net100
*821 net101
*822 net102
*823 net103
*824 net104
*825 net105
*826 net106
*827 net107
*828 net108
*829 net109
*830 net11
*831 net110
*832 net111
*833 net112
*834 net113
*835 net114
*836 net115
*837 net116
*838 net117
*839 net118
*840 net119
*841 net12
*842 net120
*843 net121
*844 net122
*845 net123
*846 net124
*847 net125
*848 net126
*849 net127
*850 net128
*851 net129
*852 net13
*853 net130
*854 net131
*855 net132
*856 net133
*857 net134
*858 net135
*859 net136
*860 net137
*861 net138
*862 net139
*863 net14
*864 net140
*865 net141
*866 net142
*867 net143
*868 net144
*869 net145
*870 net146
*871 net147
*872 net148
*873 net149
*874 net15
*875 net150
*876 net151
*877 net152
*878 net153
*879 net154
*880 net155
*881 net156
*882 net157
*883 net158
*884 net159
*885 net16
*886 net160
*887 net161
*888 net162
*889 net163
*890 net164
*891 net165
*892 net166
*893 net167
*894 net168
*895 net169
*896 net17
*897 net170
*898 net171
*899 net172
*900 net173
*901 net174
*902 net175
*903 net176
*904 net177
*905 net178
*906 net179
*907 net18
*908 net180
*909 net181
*910 net182
*911 net183
*912 net184
*913 net185
*914 net186
*915 net187
*916 net188
*917 net189
*918 net19
*919 net190
*920 net191
*921 net192
*922 net193
*923 net194
*924 net195
*925 net196
*926 net197
*927 net198
*928 net199
*929 net2
*930 net20
*931 net200
*932 net201
*933 net202
*934 net203
*935 net204
*936 net205
*937 net206
*938 net207
*939 net208
*940 net209
*941 net21
*942 net210
*943 net211
*944 net212
*945 net213
*946 net214
*947 net215
*948 net216
*949 net217
*950 net218
*951 net219
*952 net22
*953 net220
*954 net221
*955 net222
*956 net223
*957 net224
*958 net225
*959 net226
*960 net227
*961 net228
*962 net229
*963 net23
*964 net230
*965 net231
*966 net232
*967 net233
*968 net234
*969 net235
*970 net236
*971 net237
*972 net238
*973 net239
*974 net24
*975 net240
*976 net241
*977 net242
*978 net243
*979 net244
*980 net245
*981 net246
*982 net247
*983 net248
*984 net249
*985 net25
*986 net250
*987 net251
*988 net252
*989 net253
*990 net254
*991 net255
*992 net256
*993 net257
*994 net258
*995 net259
*996 net26
*997 net260
*998 net261
*999 net262
*1000 net263
*1001 net264
*1002 net265
*1003 net266
*1004 net267
*1005 net268
*1006 net269
*1007 net27
*1008 net270
*1009 net271
*1010 net272
*1011 net273
*1012 net274
*1013 net275
*1014 net276
*1015 net277
*1016 net278
*1017 net279
*1018 net28
*1019 net280
*1020 net281
*1021 net282
*1022 net283
*1023 net284
*1024 net285
*1025 net286
*1026 net287
*1027 net288
*1028 net289
*1029 net29
*1030 net290
*1031 net291
*1032 net292
*1033 net3
*1034 net30
*1035 net31
*1036 net32
*1037 net33
*1038 net34
*1039 net35
*1040 net36
*1041 net37
*1042 net38
*1043 net39
*1044 net4
*1045 net40
*1046 net41
*1047 net42
*1048 net43
*1049 net44
*1050 net45
*1051 net46
*1052 net47
*1053 net48
*1054 net49
*1055 net5
*1056 net50
*1057 net51
*1058 net52
*1059 net53
*1060 net54
*1061 net55
*1062 net56
*1063 net57
*1064 net58
*1065 net59
*1066 net6
*1067 net60
*1068 net61
*1069 net62
*1070 net63
*1071 net64
*1072 net65
*1073 net66
*1074 net67
*1075 net68
*1076 net69
*1077 net7
*1078 net70
*1079 net71
*1080 net72
*1081 net73
*1082 net74
*1083 net75
*1084 net76
*1085 net77
*1086 net78
*1087 net79
*1088 net8
*1089 net80
*1090 net81
*1091 net82
*1092 net83
*1093 net84
*1094 net85
*1095 net86
*1096 net87
*1097 net88
*1098 net89
*1099 net9
*1100 net90
*1101 net91
*1102 net92
*1103 net93
*1104 net94
*1105 net95
*1106 net96
*1107 net97
*1108 net98
*1109 net99
*1110 sr\[0\]
*1111 sr\[100\]
*1112 sr\[101\]
*1113 sr\[102\]
*1114 sr\[103\]
*1115 sr\[104\]
*1116 sr\[105\]
*1117 sr\[106\]
*1118 sr\[107\]
*1119 sr\[108\]
*1120 sr\[109\]
*1121 sr\[10\]
*1122 sr\[110\]
*1123 sr\[111\]
*1124 sr\[112\]
*1125 sr\[113\]
*1126 sr\[114\]
*1127 sr\[115\]
*1128 sr\[116\]
*1129 sr\[117\]
*1130 sr\[118\]
*1131 sr\[119\]
*1132 sr\[11\]
*1133 sr\[120\]
*1134 sr\[121\]
*1135 sr\[122\]
*1136 sr\[123\]
*1137 sr\[124\]
*1138 sr\[125\]
*1139 sr\[126\]
*1140 sr\[127\]
*1141 sr\[128\]
*1142 sr\[129\]
*1143 sr\[12\]
*1144 sr\[130\]
*1145 sr\[131\]
*1146 sr\[132\]
*1147 sr\[133\]
*1148 sr\[134\]
*1149 sr\[135\]
*1150 sr\[136\]
*1151 sr\[137\]
*1152 sr\[138\]
*1153 sr\[139\]
*1154 sr\[13\]
*1155 sr\[140\]
*1156 sr\[141\]
*1157 sr\[142\]
*1158 sr\[143\]
*1159 sr\[144\]
*1160 sr\[145\]
*1161 sr\[146\]
*1162 sr\[147\]
*1163 sr\[148\]
*1164 sr\[149\]
*1165 sr\[14\]
*1166 sr\[150\]
*1167 sr\[151\]
*1168 sr\[152\]
*1169 sr\[153\]
*1170 sr\[154\]
*1171 sr\[155\]
*1172 sr\[156\]
*1173 sr\[157\]
*1174 sr\[158\]
*1175 sr\[159\]
*1176 sr\[15\]
*1177 sr\[160\]
*1178 sr\[161\]
*1179 sr\[162\]
*1180 sr\[163\]
*1181 sr\[164\]
*1182 sr\[165\]
*1183 sr\[166\]
*1184 sr\[167\]
*1185 sr\[168\]
*1186 sr\[169\]
*1187 sr\[16\]
*1188 sr\[170\]
*1189 sr\[171\]
*1190 sr\[172\]
*1191 sr\[173\]
*1192 sr\[174\]
*1193 sr\[175\]
*1194 sr\[176\]
*1195 sr\[177\]
*1196 sr\[178\]
*1197 sr\[179\]
*1198 sr\[17\]
*1199 sr\[180\]
*1200 sr\[181\]
*1201 sr\[182\]
*1202 sr\[183\]
*1203 sr\[184\]
*1204 sr\[185\]
*1205 sr\[186\]
*1206 sr\[187\]
*1207 sr\[188\]
*1208 sr\[189\]
*1209 sr\[18\]
*1210 sr\[190\]
*1211 sr\[191\]
*1212 sr\[192\]
*1213 sr\[193\]
*1214 sr\[194\]
*1215 sr\[195\]
*1216 sr\[196\]
*1217 sr\[197\]
*1218 sr\[198\]
*1219 sr\[199\]
*1220 sr\[19\]
*1221 sr\[1\]
*1222 sr\[200\]
*1223 sr\[201\]
*1224 sr\[202\]
*1225 sr\[203\]
*1226 sr\[204\]
*1227 sr\[205\]
*1228 sr\[206\]
*1229 sr\[207\]
*1230 sr\[208\]
*1231 sr\[209\]
*1232 sr\[20\]
*1233 sr\[210\]
*1234 sr\[211\]
*1235 sr\[212\]
*1236 sr\[213\]
*1237 sr\[214\]
*1238 sr\[215\]
*1239 sr\[216\]
*1240 sr\[217\]
*1241 sr\[218\]
*1242 sr\[219\]
*1243 sr\[21\]
*1244 sr\[220\]
*1245 sr\[221\]
*1246 sr\[222\]
*1247 sr\[223\]
*1248 sr\[224\]
*1249 sr\[225\]
*1250 sr\[226\]
*1251 sr\[227\]
*1252 sr\[228\]
*1253 sr\[229\]
*1254 sr\[22\]
*1255 sr\[230\]
*1256 sr\[231\]
*1257 sr\[232\]
*1258 sr\[233\]
*1259 sr\[234\]
*1260 sr\[235\]
*1261 sr\[236\]
*1262 sr\[237\]
*1263 sr\[238\]
*1264 sr\[239\]
*1265 sr\[23\]
*1266 sr\[240\]
*1267 sr\[241\]
*1268 sr\[242\]
*1269 sr\[243\]
*1270 sr\[244\]
*1271 sr\[245\]
*1272 sr\[246\]
*1273 sr\[247\]
*1274 sr\[248\]
*1275 sr\[249\]
*1276 sr\[24\]
*1277 sr\[250\]
*1278 sr\[251\]
*1279 sr\[252\]
*1280 sr\[253\]
*1281 sr\[254\]
*1282 sr\[25\]
*1283 sr\[26\]
*1284 sr\[27\]
*1285 sr\[28\]
*1286 sr\[29\]
*1287 sr\[2\]
*1288 sr\[30\]
*1289 sr\[31\]
*1290 sr\[32\]
*1291 sr\[33\]
*1292 sr\[34\]
*1293 sr\[35\]
*1294 sr\[36\]
*1295 sr\[37\]
*1296 sr\[38\]
*1297 sr\[39\]
*1298 sr\[3\]
*1299 sr\[40\]
*1300 sr\[41\]
*1301 sr\[42\]
*1302 sr\[43\]
*1303 sr\[44\]
*1304 sr\[45\]
*1305 sr\[46\]
*1306 sr\[47\]
*1307 sr\[48\]
*1308 sr\[49\]
*1309 sr\[4\]
*1310 sr\[50\]
*1311 sr\[51\]
*1312 sr\[52\]
*1313 sr\[53\]
*1314 sr\[54\]
*1315 sr\[55\]
*1316 sr\[56\]
*1317 sr\[57\]
*1318 sr\[58\]
*1319 sr\[59\]
*1320 sr\[5\]
*1321 sr\[60\]
*1322 sr\[61\]
*1323 sr\[62\]
*1324 sr\[63\]
*1325 sr\[64\]
*1326 sr\[65\]
*1327 sr\[66\]
*1328 sr\[67\]
*1329 sr\[68\]
*1330 sr\[69\]
*1331 sr\[6\]
*1332 sr\[70\]
*1333 sr\[71\]
*1334 sr\[72\]
*1335 sr\[73\]
*1336 sr\[74\]
*1337 sr\[75\]
*1338 sr\[76\]
*1339 sr\[77\]
*1340 sr\[78\]
*1341 sr\[79\]
*1342 sr\[7\]
*1343 sr\[80\]
*1344 sr\[81\]
*1345 sr\[82\]
*1346 sr\[83\]
*1347 sr\[84\]
*1348 sr\[85\]
*1349 sr\[86\]
*1350 sr\[87\]
*1351 sr\[88\]
*1352 sr\[89\]
*1353 sr\[8\]
*1354 sr\[90\]
*1355 sr\[91\]
*1356 sr\[92\]
*1357 sr\[93\]
*1358 sr\[94\]
*1359 sr\[95\]
*1360 sr\[96\]
*1361 sr\[97\]
*1362 sr\[98\]
*1363 sr\[99\]
*1364 sr\[9\]
*1365 ANTENNA__0540__A
*1366 ANTENNA__0541__B
*1367 ANTENNA__0543__A
*1368 ANTENNA__0544__A
*1369 ANTENNA__0546__A
*1370 ANTENNA__0546__B
*1371 ANTENNA__0548__A
*1372 ANTENNA__0550__A
*1373 ANTENNA__0552__A
*1374 ANTENNA__0554__A
*1375 ANTENNA__0556__A
*1376 ANTENNA__0558__A
*1377 ANTENNA__0560__A
*1378 ANTENNA__0560__B
*1379 ANTENNA__0562__A
*1380 ANTENNA__0562__B
*1381 ANTENNA__0564__A
*1382 ANTENNA__0565__A
*1383 ANTENNA__0565__B
*1384 ANTENNA__0567__A
*1385 ANTENNA__0567__B
*1386 ANTENNA__0569__A
*1387 ANTENNA__0569__B
*1388 ANTENNA__0571__A
*1389 ANTENNA__0571__B
*1390 ANTENNA__0573__A
*1391 ANTENNA__0573__B
*1392 ANTENNA__0575__A
*1393 ANTENNA__0575__B
*1394 ANTENNA__0577__A
*1395 ANTENNA__0577__B
*1396 ANTENNA__0579__A
*1397 ANTENNA__0579__B
*1398 ANTENNA__0581__A
*1399 ANTENNA__0581__B
*1400 ANTENNA__0583__A
*1401 ANTENNA__0583__B
*1402 ANTENNA__0585__A
*1403 ANTENNA__0586__A
*1404 ANTENNA__0586__B
*1405 ANTENNA__0588__A
*1406 ANTENNA__0588__B
*1407 ANTENNA__0590__A
*1408 ANTENNA__0592__A
*1409 ANTENNA__0594__A
*1410 ANTENNA__0596__A
*1411 ANTENNA__0598__A
*1412 ANTENNA__0600__A
*1413 ANTENNA__0602__A
*1414 ANTENNA__0604__A
*1415 ANTENNA__0604__B
*1416 ANTENNA__0606__A
*1417 ANTENNA__0607__A
*1418 ANTENNA__0609__A
*1419 ANTENNA__0611__A
*1420 ANTENNA__0613__A
*1421 ANTENNA__0615__A
*1422 ANTENNA__0617__A
*1423 ANTENNA__0619__A
*1424 ANTENNA__0619__B
*1425 ANTENNA__0621__A
*1426 ANTENNA__0621__B
*1427 ANTENNA__0623__A
*1428 ANTENNA__0625__A
*1429 ANTENNA__0627__A
*1430 ANTENNA__0628__A
*1431 ANTENNA__0629__A
*1432 ANTENNA__0631__A
*1433 ANTENNA__0633__A
*1434 ANTENNA__0633__B
*1435 ANTENNA__0635__A
*1436 ANTENNA__0637__A
*1437 ANTENNA__0637__B
*1438 ANTENNA__0639__A
*1439 ANTENNA__0641__A
*1440 ANTENNA__0641__B
*1441 ANTENNA__0643__A
*1442 ANTENNA__0645__A
*1443 ANTENNA__0645__B
*1444 ANTENNA__0647__A
*1445 ANTENNA__0647__B
*1446 ANTENNA__0649__A
*1447 ANTENNA__0650__A
*1448 ANTENNA__0652__A
*1449 ANTENNA__0654__A
*1450 ANTENNA__0656__A
*1451 ANTENNA__0658__A
*1452 ANTENNA__0660__A
*1453 ANTENNA__0660__B
*1454 ANTENNA__0662__A
*1455 ANTENNA__0664__A
*1456 ANTENNA__0666__A
*1457 ANTENNA__0666__B
*1458 ANTENNA__0668__A
*1459 ANTENNA__0668__B
*1460 ANTENNA__0670__A
*1461 ANTENNA__0671__A
*1462 ANTENNA__0673__A
*1463 ANTENNA__0673__B
*1464 ANTENNA__0675__A
*1465 ANTENNA__0677__A
*1466 ANTENNA__0679__A
*1467 ANTENNA__0681__A
*1468 ANTENNA__0683__A
*1469 ANTENNA__0683__B
*1470 ANTENNA__0685__A
*1471 ANTENNA__0687__A
*1472 ANTENNA__0687__B
*1473 ANTENNA__0689__A
*1474 ANTENNA__0691__A
*1475 ANTENNA__0692__A
*1476 ANTENNA__0694__A
*1477 ANTENNA__0696__A
*1478 ANTENNA__0698__A
*1479 ANTENNA__0700__A
*1480 ANTENNA__0702__A
*1481 ANTENNA__0704__A
*1482 ANTENNA__0704__B
*1483 ANTENNA__0706__A
*1484 ANTENNA__0708__A
*1485 ANTENNA__0710__A
*1486 ANTENNA__0712__A
*1487 ANTENNA__0713__A
*1488 ANTENNA__0715__A
*1489 ANTENNA__0715__B
*1490 ANTENNA__0717__A
*1491 ANTENNA__0719__A
*1492 ANTENNA__0721__A
*1493 ANTENNA__0723__A
*1494 ANTENNA__0725__A
*1495 ANTENNA__0727__A
*1496 ANTENNA__0729__A
*1497 ANTENNA__0731__A
*1498 ANTENNA__0733__A
*1499 ANTENNA__0734__A
*1500 ANTENNA__0734__B
*1501 ANTENNA__0736__A
*1502 ANTENNA__0736__B
*1503 ANTENNA__0738__A
*1504 ANTENNA__0740__A
*1505 ANTENNA__0742__A
*1506 ANTENNA__0744__A
*1507 ANTENNA__0746__A
*1508 ANTENNA__0748__A
*1509 ANTENNA__0750__A
*1510 ANTENNA__0752__A
*1511 ANTENNA__0754__A
*1512 ANTENNA__0755__A
*1513 ANTENNA__0757__A
*1514 ANTENNA__0757__B
*1515 ANTENNA__0759__A
*1516 ANTENNA__0759__B
*1517 ANTENNA__0761__A
*1518 ANTENNA__0761__B
*1519 ANTENNA__0763__A
*1520 ANTENNA__0763__B
*1521 ANTENNA__0765__A
*1522 ANTENNA__0765__B
*1523 ANTENNA__0767__A
*1524 ANTENNA__0767__B
*1525 ANTENNA__0769__A
*1526 ANTENNA__0769__B
*1527 ANTENNA__0771__A
*1528 ANTENNA__0773__A
*1529 ANTENNA__0775__A
*1530 ANTENNA__0776__A
*1531 ANTENNA__0776__B
*1532 ANTENNA__0778__A
*1533 ANTENNA__0778__B
*1534 ANTENNA__0780__A
*1535 ANTENNA__0780__B
*1536 ANTENNA__0782__A
*1537 ANTENNA__0782__B
*1538 ANTENNA__0784__A
*1539 ANTENNA__0784__B
*1540 ANTENNA__0786__A
*1541 ANTENNA__0786__B
*1542 ANTENNA__0788__A
*1543 ANTENNA__0788__B
*1544 ANTENNA__0790__A
*1545 ANTENNA__0790__B
*1546 ANTENNA__0792__A
*1547 ANTENNA__0792__B
*1548 ANTENNA__0794__A
*1549 ANTENNA__0794__B
*1550 ANTENNA__0796__A
*1551 ANTENNA__0797__A
*1552 ANTENNA__0797__B
*1553 ANTENNA__0799__A
*1554 ANTENNA__0799__B
*1555 ANTENNA__0801__A
*1556 ANTENNA__0801__B
*1557 ANTENNA__0803__A
*1558 ANTENNA__0803__B
*1559 ANTENNA__0805__A
*1560 ANTENNA__0805__B
*1561 ANTENNA__0807__A
*1562 ANTENNA__0807__B
*1563 ANTENNA__0809__A
*1564 ANTENNA__0809__B
*1565 ANTENNA__0811__A
*1566 ANTENNA__0811__B
*1567 ANTENNA__0813__A
*1568 ANTENNA__0813__B
*1569 ANTENNA__0815__A
*1570 ANTENNA__0815__B
*1571 ANTENNA__0817__A
*1572 ANTENNA__0818__A
*1573 ANTENNA__0818__B
*1574 ANTENNA__0820__A
*1575 ANTENNA__0820__B
*1576 ANTENNA__0822__A
*1577 ANTENNA__0822__B
*1578 ANTENNA__0824__A
*1579 ANTENNA__0824__B
*1580 ANTENNA__0826__A
*1581 ANTENNA__0826__B
*1582 ANTENNA__0828__A
*1583 ANTENNA__0828__B
*1584 ANTENNA__0830__A
*1585 ANTENNA__0830__B
*1586 ANTENNA__0832__A
*1587 ANTENNA__0832__B
*1588 ANTENNA__0834__A
*1589 ANTENNA__0834__B
*1590 ANTENNA__0836__A
*1591 ANTENNA__0836__B
*1592 ANTENNA__0838__A
*1593 ANTENNA__0839__A
*1594 ANTENNA__0840__B
*1595 ANTENNA__0848__B
*1596 ANTENNA__0849__A
*1597 ANTENNA__0850__B
*1598 ANTENNA__0852__B
*1599 ANTENNA__0854__B
*1600 ANTENNA__0856__B
*1601 ANTENNA__0858__B
*1602 ANTENNA__0860__A
*1603 ANTENNA__0861__A
*1604 ANTENNA__0861__B
*1605 ANTENNA__0863__A
*1606 ANTENNA__0863__B
*1607 ANTENNA__0865__A
*1608 ANTENNA__0866__A
*1609 ANTENNA__0867__A
*1610 ANTENNA__0867__B
*1611 ANTENNA__0869__A
*1612 ANTENNA__0869__B
*1613 ANTENNA__0871__A
*1614 ANTENNA__0871__B
*1615 ANTENNA__0873__A
*1616 ANTENNA__0873__B
*1617 ANTENNA__0875__A
*1618 ANTENNA__0875__B
*1619 ANTENNA__0877__A
*1620 ANTENNA__0877__B
*1621 ANTENNA__0879__A
*1622 ANTENNA__0879__B
*1623 ANTENNA__0881__A
*1624 ANTENNA__0882__A
*1625 ANTENNA__0884__A
*1626 ANTENNA__0886__A
*1627 ANTENNA__0888__A
*1628 ANTENNA__0890__A
*1629 ANTENNA__0890__B
*1630 ANTENNA__0892__A
*1631 ANTENNA__0894__A
*1632 ANTENNA__0896__A
*1633 ANTENNA__0896__B
*1634 ANTENNA__0898__A
*1635 ANTENNA__0898__B
*1636 ANTENNA__0900__A
*1637 ANTENNA__0900__B
*1638 ANTENNA__0902__A
*1639 ANTENNA__0903__A
*1640 ANTENNA__0903__B
*1641 ANTENNA__0905__A
*1642 ANTENNA__0905__B
*1643 ANTENNA__0907__A
*1644 ANTENNA__0909__A
*1645 ANTENNA__0911__A
*1646 ANTENNA__0913__A
*1647 ANTENNA__0915__A
*1648 ANTENNA__0915__B
*1649 ANTENNA__0917__A
*1650 ANTENNA__0917__B
*1651 ANTENNA__0919__A
*1652 ANTENNA__0921__A
*1653 ANTENNA__0921__B
*1654 ANTENNA__0923__A
*1655 ANTENNA__0924__A
*1656 ANTENNA__0926__A
*1657 ANTENNA__0928__A
*1658 ANTENNA__0930__A
*1659 ANTENNA__0932__A
*1660 ANTENNA__0934__A
*1661 ANTENNA__0936__A
*1662 ANTENNA__0936__B
*1663 ANTENNA__0938__A
*1664 ANTENNA__0940__A
*1665 ANTENNA__0942__A
*1666 ANTENNA__0942__B
*1667 ANTENNA__0944__A
*1668 ANTENNA__0945__A
*1669 ANTENNA__0947__A
*1670 ANTENNA__0947__B
*1671 ANTENNA__0949__A
*1672 ANTENNA__0951__A
*1673 ANTENNA__0953__A
*1674 ANTENNA__0955__A
*1675 ANTENNA__0957__A
*1676 ANTENNA__0957__B
*1677 ANTENNA__0959__A
*1678 ANTENNA__0961__A
*1679 ANTENNA__0963__A
*1680 ANTENNA__0965__A
*1681 ANTENNA__0966__A
*1682 ANTENNA__0966__B
*1683 ANTENNA__0968__A
*1684 ANTENNA__0970__A
*1685 ANTENNA__0972__A
*1686 ANTENNA__0974__A
*1687 ANTENNA__0976__A
*1688 ANTENNA__0978__A
*1689 ANTENNA__0978__B
*1690 ANTENNA__0979__A
*1691 ANTENNA__0980__A
*1692 ANTENNA__0980__B
*1693 ANTENNA__0982__A
*1694 ANTENNA__0982__B
*1695 ANTENNA__0984__A
*1696 ANTENNA__0984__B
*1697 ANTENNA__0986__A
*1698 ANTENNA__0987__B
*1699 ANTENNA__0989__B
*1700 ANTENNA__0991__B
*1701 ANTENNA__0993__B
*1702 ANTENNA__0995__B
*1703 ANTENNA__0997__B
*1704 ANTENNA__0999__B
*1705 ANTENNA__1001__B
*1706 ANTENNA__1003__B
*1707 ANTENNA__1005__B
*1708 ANTENNA__1007__A
*1709 ANTENNA__1008__A
*1710 ANTENNA__1008__B
*1711 ANTENNA__1010__A
*1712 ANTENNA__1010__B
*1713 ANTENNA__1012__A
*1714 ANTENNA__1012__B
*1715 ANTENNA__1014__A
*1716 ANTENNA__1016__A
*1717 ANTENNA__1016__B
*1718 ANTENNA__1018__A
*1719 ANTENNA__1020__A
*1720 ANTENNA__1020__B
*1721 ANTENNA__1022__A
*1722 ANTENNA__1022__B
*1723 ANTENNA__1024__A
*1724 ANTENNA__1026__A
*1725 ANTENNA__1026__B
*1726 ANTENNA__1028__A
*1727 ANTENNA__1029__A
*1728 ANTENNA__1031__A
*1729 ANTENNA__1031__B
*1730 ANTENNA__1033__A
*1731 ANTENNA__1035__A
*1732 ANTENNA__1037__A
*1733 ANTENNA__1037__B
*1734 ANTENNA__1039__A
*1735 ANTENNA__1039__B
*1736 ANTENNA__1041__A
*1737 ANTENNA__1041__B
*1738 ANTENNA__1043__A
*1739 ANTENNA__1043__B
*1740 ANTENNA__1045__A
*1741 ANTENNA__1045__B
*1742 ANTENNA__1047__A
*1743 ANTENNA__1047__B
*1744 ANTENNA__1049__A
*1745 ANTENNA__1050__A
*1746 ANTENNA__1052__A
*1747 ANTENNA__1052__B
*1748 ANTENNA__1054__A
*1749 ANTENNA__1056__A
*1750 ANTENNA__1057__A
*1751 ANTENNA__1058__A
*1752 ANTENNA__1060__A
*1753 ANTENNA__1060__B
*1754 ANTENNA__1062__A
*1755 ANTENNA__1064__A
*1756 ANTENNA__1066__A
*1757 ANTENNA__1068__A
*1758 ANTENNA__1070__A
*1759 ANTENNA__1070__B
*1760 ANTENNA__1072__A
*1761 ANTENNA__1072__B
*1762 ANTENNA__1074__A
*1763 ANTENNA__1074__B
*1764 ANTENNA__1076__A
*1765 ANTENNA__1078__A
*1766 ANTENNA__1078__B
*1767 ANTENNA__1080__CLK
*1768 ANTENNA__1081__CLK
*1769 ANTENNA__1082__CLK
*1770 ANTENNA__1083__CLK
*1771 ANTENNA__1084__CLK
*1772 ANTENNA__1085__CLK
*1773 ANTENNA__1086__CLK
*1774 ANTENNA__1087__CLK
*1775 ANTENNA__1088__CLK
*1776 ANTENNA__1089__CLK
*1777 ANTENNA__1090__CLK
*1778 ANTENNA__1091__CLK
*1779 ANTENNA__1092__CLK
*1780 ANTENNA__1093__CLK
*1781 ANTENNA__1094__CLK
*1782 ANTENNA__1095__CLK
*1783 ANTENNA__1096__CLK
*1784 ANTENNA__1097__CLK
*1785 ANTENNA__1098__CLK
*1786 ANTENNA__1099__CLK
*1787 ANTENNA__1100__CLK
*1788 ANTENNA__1101__CLK
*1789 ANTENNA__1102__CLK
*1790 ANTENNA__1103__CLK
*1791 ANTENNA__1104__CLK
*1792 ANTENNA__1105__CLK
*1793 ANTENNA__1106__CLK
*1794 ANTENNA__1107__CLK
*1795 ANTENNA__1108__CLK
*1796 ANTENNA__1109__CLK
*1797 ANTENNA__1110__CLK
*1798 ANTENNA__1110__D
*1799 ANTENNA__1111__CLK
*1800 ANTENNA__1112__CLK
*1801 ANTENNA__1113__CLK
*1802 ANTENNA__1114__CLK
*1803 ANTENNA__1115__CLK
*1804 ANTENNA__1116__CLK
*1805 ANTENNA__1117__CLK
*1806 ANTENNA__1118__CLK
*1807 ANTENNA__1119__CLK
*1808 ANTENNA__1120__CLK
*1809 ANTENNA__1121__CLK
*1810 ANTENNA__1122__CLK
*1811 ANTENNA__1123__CLK
*1812 ANTENNA__1124__CLK
*1813 ANTENNA__1125__CLK
*1814 ANTENNA__1126__CLK
*1815 ANTENNA__1127__CLK
*1816 ANTENNA__1128__CLK
*1817 ANTENNA__1129__CLK
*1818 ANTENNA__1130__CLK
*1819 ANTENNA__1131__CLK
*1820 ANTENNA__1132__CLK
*1821 ANTENNA__1133__CLK
*1822 ANTENNA__1134__CLK
*1823 ANTENNA__1135__CLK
*1824 ANTENNA__1136__CLK
*1825 ANTENNA__1137__CLK
*1826 ANTENNA__1138__CLK
*1827 ANTENNA__1139__CLK
*1828 ANTENNA__1140__CLK
*1829 ANTENNA__1141__CLK
*1830 ANTENNA__1142__CLK
*1831 ANTENNA__1143__CLK
*1832 ANTENNA__1144__CLK
*1833 ANTENNA__1145__CLK
*1834 ANTENNA__1146__CLK
*1835 ANTENNA__1147__CLK
*1836 ANTENNA__1148__CLK
*1837 ANTENNA__1149__CLK
*1838 ANTENNA__1150__CLK
*1839 ANTENNA__1151__CLK
*1840 ANTENNA__1152__CLK
*1841 ANTENNA__1153__CLK
*1842 ANTENNA__1154__CLK
*1843 ANTENNA__1155__CLK
*1844 ANTENNA__1156__CLK
*1845 ANTENNA__1157__CLK
*1846 ANTENNA__1158__CLK
*1847 ANTENNA__1159__CLK
*1848 ANTENNA__1160__CLK
*1849 ANTENNA__1161__CLK
*1850 ANTENNA__1162__CLK
*1851 ANTENNA__1163__CLK
*1852 ANTENNA__1164__CLK
*1853 ANTENNA__1165__CLK
*1854 ANTENNA__1166__CLK
*1855 ANTENNA__1167__CLK
*1856 ANTENNA__1168__CLK
*1857 ANTENNA__1169__CLK
*1858 ANTENNA__1170__CLK
*1859 ANTENNA__1171__CLK
*1860 ANTENNA__1171__D
*1861 ANTENNA__1172__CLK
*1862 ANTENNA__1173__CLK
*1863 ANTENNA__1174__CLK
*1864 ANTENNA__1175__CLK
*1865 ANTENNA__1176__CLK
*1866 ANTENNA__1177__CLK
*1867 ANTENNA__1178__CLK
*1868 ANTENNA__1179__CLK
*1869 ANTENNA__1180__CLK
*1870 ANTENNA__1181__CLK
*1871 ANTENNA__1182__CLK
*1872 ANTENNA__1182__D
*1873 ANTENNA__1183__CLK
*1874 ANTENNA__1183__D
*1875 ANTENNA__1184__CLK
*1876 ANTENNA__1185__CLK
*1877 ANTENNA__1185__D
*1878 ANTENNA__1186__CLK
*1879 ANTENNA__1186__D
*1880 ANTENNA__1187__CLK
*1881 ANTENNA__1188__CLK
*1882 ANTENNA__1189__CLK
*1883 ANTENNA__1190__CLK
*1884 ANTENNA__1190__D
*1885 ANTENNA__1191__CLK
*1886 ANTENNA__1191__D