*SPEF "ieee 1481-1999"
*DESIGN "sarcon_sync"
*DATE "11:11:11 Fri 11 11, 1111"
*VENDOR "OpenRCX"
*PROGRAM "Parallel Extraction"
*VERSION "1.0"
*DESIGN_FLOW "NAME_SCOPE LOCAL" "PIN_CAP NONE"
*DIVIDER /
*DELIMITER :
*BUS_DELIMITER []
*T_UNIT 1 NS
*C_UNIT 1 PF
*R_UNIT 1 OHM
*L_UNIT 1 HENRY

*NAME_MAP
*1 clk
*2 comp
*3 dq[0]
*4 dq[1]
*5 dq[2]
*6 dq[3]
*7 dq[4]
*8 dq[5]
*9 dq[6]
*10 dq[7]
*11 last_cycle
*12 rst_n
*13 valid
*16 _00_
*17 _01_
*18 _02_
*19 _03_
*20 _04_
*21 _05_
*22 _06_
*23 _07_
*24 _08_
*25 _09_
*26 _10_
*27 _11_
*28 _12_
*29 _13_
*30 _14_
*31 _15_
*32 _16_
*33 _17_
*34 _18_
*35 _19_
*36 _20_
*37 _21_
*38 _22_
*39 _23_
*40 clknet_0_clk
*41 clknet_1_0__leaf_clk
*42 clknet_1_1__leaf_clk
*43 net1
*44 net10
*45 net11
*46 net12
*47 net13
*48 net14
*49 net15
*50 net16
*51 net2
*52 net3
*53 net4
*54 net5
*55 net6
*56 net7
*57 net8
*58 net9
*59 sr\[1\]
*60 sr\[2\]
*61 sr\[3\]
*62 sr\[4\]
*63 sr\[5\]
*64 sr\[6\]
*65 sr\[7\]
*66 ANTENNA_clkbuf_0_clk_A
*67 ANTENNA_hold1_A
*68 ANTENNA_input1_A
*69 FILLER_0_107
*70 FILLER_0_111
*71 FILLER_0_113
*72 FILLER_0_117
*73 FILLER_0_138
*74 FILLER_0_141
*75 FILLER_0_163
*76 FILLER_0_167
*77 FILLER_0_169
*78 FILLER_0_177
*79 FILLER_0_182
*80 FILLER_0_26
*81 FILLER_0_29
*82 FILLER_0_3
*83 FILLER_0_33
*84 FILLER_0_54
*85 FILLER_0_57
*86 FILLER_0_69
*87 FILLER_0_81
*88 FILLER_0_85
*89 FILLER_1_110
*90 FILLER_1_113
*91 FILLER_1_135
*92 FILLER_1_143
*93 FILLER_1_155
*94 FILLER_1_167
*95 FILLER_1_169
*96 FILLER_1_181
*97 FILLER_1_189
*98 FILLER_1_29
*99 FILLER_1_3
*100 FILLER_1_54
*101 FILLER_1_57
*102 FILLER_1_65
*103 FILLER_1_86
*104 FILLER_2_100
*105 FILLER_2_106
*106 FILLER_2_110
*107 FILLER_2_138
*108 FILLER_2_141
*109 FILLER_2_153
*110 FILLER_2_165
*111 FILLER_2_177
*112 FILLER_2_189
*113 FILLER_2_26
*114 FILLER_2_29
*115 FILLER_2_3
*116 FILLER_2_57
*117 FILLER_2_81
*118 FILLER_2_85
*119 FILLER_2_91
*120 FILLER_3_105
*121 FILLER_3_11
*122 FILLER_3_111
*123 FILLER_3_113
*124 FILLER_3_135
*125 FILLER_3_15
*126 FILLER_3_159
*127 FILLER_3_167
*128 FILLER_3_169
*129 FILLER_3_181
*130 FILLER_3_189
*131 FILLER_3_3
*132 FILLER_3_39
*133 FILLER_3_46
*134 FILLER_3_54
*135 FILLER_3_57
*136 FILLER_3_63
*137 FILLER_3_80
*138 FILLER_3_84
*139 FILLER_4_107
*140 FILLER_4_11
*141 FILLER_4_114
*142 FILLER_4_127
*143 FILLER_4_134
*144 FILLER_4_141
*145 FILLER_4_158
*146 FILLER_4_165
*147 FILLER_4_172
*148 FILLER_4_184
*149 FILLER_4_22
*150 FILLER_4_29
*151 FILLER_4_3
*152 FILLER_4_37
*153 FILLER_4_43
*154 FILLER_4_51
*155 FILLER_4_58
*156 FILLER_4_67
*157 FILLER_4_82
*158 FILLER_4_85
*159 FILLER_4_92
*160 FILLER_4_98
*161 FILLER_5_106
*162 FILLER_5_113
*163 FILLER_5_124
*164 FILLER_5_137
*165 FILLER_5_149
*166 FILLER_5_15
*167 FILLER_5_161
*168 FILLER_5_167
*169 FILLER_5_169
*170 FILLER_5_181
*171 FILLER_5_189
*172 FILLER_5_3
*173 FILLER_5_38
*174 FILLER_5_50
*175 FILLER_5_57
*176 FILLER_5_69
*177 FILLER_5_93
*178 FILLER_6_109
*179 FILLER_6_118
*180 FILLER_6_126
*181 FILLER_6_132
*182 FILLER_6_141
*183 FILLER_6_15
*184 FILLER_6_153
*185 FILLER_6_165
*186 FILLER_6_177
*187 FILLER_6_189
*188 FILLER_6_27
*189 FILLER_6_29
*190 FILLER_6_3
*191 FILLER_6_41
*192 FILLER_6_53
*193 FILLER_6_64
*194 FILLER_6_79
*195 FILLER_6_83
*196 FILLER_6_85
*197 FILLER_6_97
*198 FILLER_7_104
*199 FILLER_7_113
*200 FILLER_7_125
*201 FILLER_7_137
*202 FILLER_7_149
*203 FILLER_7_15
*204 FILLER_7_161
*205 FILLER_7_167
*206 FILLER_7_169
*207 FILLER_7_181
*208 FILLER_7_189
*209 FILLER_7_27
*210 FILLER_7_3
*211 FILLER_7_39
*212 FILLER_7_51
*213 FILLER_7_55
*214 FILLER_7_57
*215 FILLER_7_69
*216 FILLER_7_80
*217 FILLER_7_92
*218 FILLER_8_109
*219 FILLER_8_121
*220 FILLER_8_133
*221 FILLER_8_139
*222 FILLER_8_141
*223 FILLER_8_15
*224 FILLER_8_153
*225 FILLER_8_165
*226 FILLER_8_177
*227 FILLER_8_189
*228 FILLER_8_27
*229 FILLER_8_29
*230 FILLER_8_3
*231 FILLER_8_41
*232 FILLER_8_53
*233 FILLER_8_65
*234 FILLER_8_77
*235 FILLER_8_83
*236 FILLER_8_85
*237 FILLER_8_97
*238 FILLER_9_101
*239 FILLER_9_109
*240 FILLER_9_113
*241 FILLER_9_125
*242 FILLER_9_137
*243 FILLER_9_141
*244 FILLER_9_149
*245 FILLER_9_161
*246 FILLER_9_167
*247 FILLER_9_169
*248 FILLER_9_175
*249 FILLER_9_183
*250 FILLER_9_188
*251 FILLER_9_21
*252 FILLER_9_27
*253 FILLER_9_29
*254 FILLER_9_3
*255 FILLER_9_35
*256 FILLER_9_47
*257 FILLER_9_53
*258 FILLER_9_57
*259 FILLER_9_69
*260 FILLER_9_77
*261 FILLER_9_83
*262 FILLER_9_85
*263 FILLER_9_9
*264 FILLER_9_93
*265 PHY_0
*266 PHY_1
*267 PHY_10
*268 PHY_11
*269 PHY_12
*270 PHY_13
*271 PHY_14
*272 PHY_15
*273 PHY_16
*274 PHY_17
*275 PHY_18
*276 PHY_19
*277 PHY_2
*278 PHY_3
*279 PHY_4
*280 PHY_5
*281 PHY_6
*282 PHY_7
*283 PHY_8
*284 PHY_9
*285 TAP_20
*286 TAP_21
*287 TAP_22
*288 TAP_23
*289 TAP_24
*290 TAP_25
*291 TAP_26
*292 TAP_27
*293 TAP_28
*294 TAP_29
*295 TAP_30
*296 TAP_31
*297 TAP_32
*298 TAP_33
*299 TAP_34
*300 TAP_35
*301 TAP_36
*302 TAP_37
*303 TAP_38
*304 TAP_39
*305 TAP_40
*306 TAP_41
*307 TAP_42
*308 TAP_43
*309 TAP_44
*310 TAP_45
*311 TAP_46
*312 TAP_47
*313 TAP_48
*314 TAP_49
*315 TAP_50
*316 TAP_51
*317 TAP_52
*318 TAP_53
*319 TAP_54
*320 TAP_55
*321 _25_
*322 _26_
*323 _27_
*324 _28_
*325 _29_
*326 _30_
*327 _31_
*328 _32_
*329 _33_
*330 _34_
*331 _35_
*332 _36_
*333 _37_
*334 _38_
*335 _39_
*336 _40_
*337 _41_
*338 _42_
*339 _43_
*340 _44_
*341 _45_
*342 _46_
*343 _47_
*344 _48_
*345 _49_
*346 _50_
*347 _51_
*348 _52_
*349 _53_
*350 _54_
*351 _55_
*352 _56_
*353 _57_
*354 _58_
*355 _59_
*356 _60_
*357 _60__15
*358 _61_
*359 _62_
*360 _63_
*361 _64_
*362 _65_
*363 clkbuf_0_clk
*364 clkbuf_1_0__f_clk
*365 clkbuf_1_1__f_clk
*366 fanout13
*367 fanout14
*368 hold1
*369 input1
*370 input2
*371 output10
*372 output11
*373 output12
*374 output3
*375 output4
*376 output5
*377 output6
*378 output7
*379 output8
*380 output9

*PORTS
clk I
comp I
dq[0] O
dq[1] O
dq[2] O
dq[3] O
dq[4] O
dq[5] O
dq[6] O
dq[7] O
last_cycle O
rst_n I
valid O

*D_NET *1 0.00581658
*CONN
*P clk I
*I *66:DIODE I *D sky130_fd_sc_hd__diode_2
*I *363:A I *D sky130_fd_sc_hd__clkbuf_16
*CAP
1 clk 0.00147624
2 *66:DIODE 4.32191e-05
3 *363:A 0.000212409
4 *1:13 0.00173187
5 *66:DIODE *344:A 8.75817e-05
6 *66:DIODE *43:15 0.000182598
7 *363:A *343:B 5.52302e-05
8 *363:A *344:A 2.89016e-05
9 *363:A *360:RESET_B 5.86416e-05
10 *363:A *43:15 0.000266479
11 *363:A *47:103 0
12 *363:A *55:20 3.81875e-05
13 *363:A *62:38 0.000105067
14 *1:13 *343:A 1.19309e-05
15 *1:13 *360:RESET_B 0
16 *1:13 *365:A 8.9163e-05
17 *1:13 *40:8 6.19181e-05
18 *1:13 *46:19 0.000610363
19 *1:13 *48:19 0
20 *1:13 *54:8 0
21 *1:13 *61:17 0
22 *1:13 *62:38 5.10822e-05
23 *1:13 *65:19 0.000705703
*RES
1 clk *1:13 40.4107 
2 *1:13 *363:A 23.6304 
3 *1:13 *66:DIODE 11.0679 
*END

*D_NET *2 0.00159714
*CONN
*P comp I
*I *369:A I *D sky130_fd_sc_hd__clkbuf_2
*I *68:DIODE I *D sky130_fd_sc_hd__diode_2
*CAP
1 comp 0.000522612
2 *369:A 0
3 *68:DIODE 0.00011714
4 *2:10 0.000639752
5 *68:DIODE *56:34 0.000274244
6 *2:10 *56:34 4.33899e-05
*RES
1 comp *2:10 14.8036 
2 *2:10 *68:DIODE 11.8893 
3 *2:10 *369:A 9.3 
*END

*D_NET *3 0.00127346
*CONN
*P dq[0] O
*I *374:X O *D sky130_fd_sc_hd__buf_2
*CAP
1 dq[0] 0.00063673
2 *374:X 0.00063673
*RES
1 *374:X dq[0] 24.4964 
*END

*D_NET *4 0.00142262
*CONN
*P dq[1] O
*I *375:X O *D sky130_fd_sc_hd__buf_2
*CAP
1 dq[1] 0.000691215
2 *375:X 0.000691215
3 dq[1] *52:28 4.01907e-05
*RES
1 *375:X dq[1] 25.3179 
*END

*D_NET *5 0.000940114
*CONN
*P dq[2] O
*I *376:X O *D sky130_fd_sc_hd__buf_2
*CAP
1 dq[2] 0.000470057
2 *376:X 0.000470057
*RES
1 *376:X dq[2] 22.8536 
*END

*D_NET *6 0.000914055
*CONN
*P dq[3] O
*I *377:X O *D sky130_fd_sc_hd__buf_2
*CAP
1 dq[3] 0.000457028
2 *377:X 0.000457028
*RES
1 *377:X dq[3] 22.8536 
*END

*D_NET *7 0.000967806
*CONN
*P dq[4] O
*I *378:X O *D sky130_fd_sc_hd__buf_2
*CAP
1 dq[4] 0.000483903
2 *378:X 0.000483903
*RES
1 *378:X dq[4] 23.3893 
*END

*D_NET *8 0.000954247
*CONN
*P dq[5] O
*I *379:X O *D sky130_fd_sc_hd__buf_2
*CAP
1 dq[5] 0.000477123
2 *379:X 0.000477123
*RES
1 *379:X dq[5] 23.2643 
*END

*D_NET *9 0.00123882
*CONN
*P dq[6] O
*I *380:X O *D sky130_fd_sc_hd__buf_2
*CAP
1 dq[6] 0.000577803
2 *380:X 0.000577803
3 dq[6] *371:A 8.32152e-05
*RES
1 *380:X dq[6] 24.0857 
*END

*D_NET *10 0.0011661
*CONN
*P dq[7] O
*I *371:X O *D sky130_fd_sc_hd__buf_2
*CAP
1 dq[7] 0.000583051
2 *371:X 0.000583051
*RES
1 *371:X dq[7] 24.6214 
*END

*D_NET *11 0.00101592
*CONN
*P last_cycle O
*I *372:X O *D sky130_fd_sc_hd__buf_2
*CAP
1 last_cycle 0.000469636
2 *372:X 0.000469636
3 last_cycle *45:34 7.6644e-05
*RES
1 *372:X last_cycle 22.05 
*END

*D_NET *12 0.00368487
*CONN
*P rst_n I
*I *67:DIODE I *D sky130_fd_sc_hd__diode_2
*I *368:A I *D sky130_fd_sc_hd__dlygate4sd3_1
*CAP
1 rst_n 0.00100094
2 *67:DIODE 0.000279472
3 *368:A 0
4 *12:16 0.00128041
5 *67:DIODE *348:D 0.000474842
6 *67:DIODE *366:A 0.000270326
7 *67:DIODE *47:7 6.42095e-05
8 *12:16 *348:D 7.43578e-06
9 *12:16 *358:CLK 0.000210535
10 *12:16 *358:D 0
11 *12:16 *359:RESET_B 3.47737e-05
12 *12:16 *370:A 0
13 *12:16 *41:38 6.19181e-05
*RES
1 rst_n *12:16 24.8036 
2 *12:16 *368:A 9.3 
3 *12:16 *67:DIODE 17.6393 
*END

*D_NET *13 0.00267788
*CONN
*P valid O
*I *373:X O *D sky130_fd_sc_hd__buf_2
*CAP
1 valid 0.00101268
2 *373:X 0.00101268
3 valid *361:D 0
4 valid *48:34 5.93363e-05
5 valid *65:19 0.000232286
6 valid *65:21 0.000360894
*RES
1 *373:X valid 30.6393 
*END

*D_NET *16 0.00196052
*CONN
*I *345:D I *D sky130_fd_sc_hd__dfrtp_1
*I *323:X O *D sky130_fd_sc_hd__clkbuf_1
*CAP
1 *345:D 0.000311791
2 *323:X 0.000311791
3 *345:D *323:A 7.05982e-05
4 *345:D *345:RESET_B 2.81497e-05
5 *345:D *350:RESET_B 8.86413e-05
6 *345:D *44:15 0.000613845
7 *345:D *47:103 0.000143445
8 *345:D *55:16 2.89114e-05
9 *345:D *55:20 0.000354098
10 *345:D *58:21 9.25014e-06
11 *345:D *63:21 0
*RES
1 *323:X *345:D 38.7071 
*END

*D_NET *17 0.00869015
*CONN
*I *346:D I *D sky130_fd_sc_hd__dfrtp_1
*I *326:X O *D sky130_fd_sc_hd__clkbuf_1
*CAP
1 *346:D 0.00127598
2 *326:X 0.00150834
3 *17:18 0.00278432
4 *346:D *346:RESET_B 4.73514e-05
5 *346:D *352:D 0.000541222
6 *346:D *354:D 0.000337352
7 *346:D *364:A 0.000457531
8 *346:D *18:11 0.000941968
9 *346:D *62:7 9.87672e-05
10 *17:18 *326:A 5.20669e-05
11 *17:18 *355:D 6.81335e-05
12 *17:18 *362:CLK 7.77652e-05
13 *17:18 *18:8 0
14 *17:18 *42:28 0.000140933
15 *17:18 *42:29 9.69119e-06
16 *17:18 *42:51 4.47162e-05
17 *17:18 *42:57 4.46186e-06
18 *17:18 *64:17 0
19 *17:18 *65:21 0.000299552
*RES
1 *326:X *17:18 49.5857 
2 *17:18 *346:D 44.5143 
*END

*D_NET *18 0.012739
*CONN
*I *347:D I *D sky130_fd_sc_hd__dfrtp_1
*I *329:X O *D sky130_fd_sc_hd__clkbuf_1
*CAP
1 *347:D 0.00106155
2 *329:X 0.000203013
3 *18:11 0.00427545
4 *18:8 0.00341692
5 *347:D *347:CLK 0.000154513
6 *347:D *347:RESET_B 1.31213e-05
7 *347:D *359:RESET_B 9.32265e-06
8 *347:D *364:A 0.000273269
9 *347:D *41:7 0.000393943
10 *347:D *41:77 0.000825887
11 *347:D *47:13 0.000175327
12 *347:D *58:13 0.000232499
13 *18:8 *325:A 0
14 *18:11 *364:A 0.000608253
15 *18:11 *48:7 5.52302e-05
16 *18:11 *62:7 9.87672e-05
17 *346:D *18:11 0.000941968
18 *17:18 *18:8 0
*RES
1 *329:X *18:8 21.7643 
2 *18:8 *18:11 41.625 
3 *18:11 *347:D 31.8045 
*END

*D_NET *19 0.00948486
*CONN
*I *348:D I *D sky130_fd_sc_hd__dfrtp_1
*I *332:X O *D sky130_fd_sc_hd__clkbuf_1
*CAP
1 *348:D 0.00123045
2 *332:X 0.00176017
3 *19:13 0.00299062
4 *348:D *334:B 0.000651729
5 *348:D *335:A 4.8035e-05
6 *348:D *341:A 0.00014183
7 *348:D *366:A 1.39726e-05
8 *19:13 *327:A1 2.2351e-05
9 *19:13 *327:S 2.36643e-05
10 *19:13 *332:A 5.71472e-05
11 *19:13 *333:S 1.98839e-05
12 *19:13 *334:B 3.38774e-05
13 *19:13 *338:A 6.62983e-05
14 *19:13 *21:25 0.000224583
15 *19:13 *43:17 2.05612e-05
16 *19:13 *47:103 0.00122206
17 *19:13 *58:21 0.000101286
18 *19:13 *58:38 0.000328237
19 *19:13 *61:17 4.58194e-05
20 *67:DIODE *348:D 0.000474842
21 *12:16 *348:D 7.43578e-06
*RES
1 *332:X *19:13 35.9786 
2 *19:13 *348:D 41.3179 
*END

*D_NET *20 0.00293757
*CONN
*I *349:D I *D sky130_fd_sc_hd__dfrtp_1
*I *335:X O *D sky130_fd_sc_hd__clkbuf_1
*CAP
1 *349:D 0.000388673
2 *335:X 0.000388673
3 *349:D *349:RESET_B 2.51837e-05
4 *349:D *356:D 0.000265453
5 *349:D *367:A 0.000407735
6 *349:D *41:33 0.000266549
7 *349:D *47:42 5.81579e-05
8 *349:D *51:7 0.000213237
9 *349:D *56:18 0.000923911
*RES
1 *335:X *349:D 34.7607 
*END

*D_NET *21 0.00309555
*CONN
*I *350:D I *D sky130_fd_sc_hd__dfrtp_1
*I *338:X O *D sky130_fd_sc_hd__clkbuf_1
*CAP
1 *350:D 0
2 *338:X 0.000769749
3 *21:25 0.000769749
4 *21:25 *327:A1 7.51221e-05
5 *21:25 *327:S 0.000139631
6 *21:25 *328:B 5.71472e-05
7 *21:25 *330:S 9.87983e-06
8 *21:25 *350:CLK 9.71197e-05
9 *21:25 *350:RESET_B 6.60925e-05
10 *21:25 *373:A 0.000140021
11 *21:25 *42:57 3.34295e-05
12 *21:25 *44:19 0
13 *21:25 *47:103 3.30237e-05
14 *21:25 *55:16 0.000190193
15 *21:25 *58:38 0.000489808
16 *19:13 *21:25 0.000224583
*RES
1 *338:X *21:25 44.2821 
2 *21:25 *350:D 9.3 
*END

*D_NET *22 0.00376439
*CONN
*I *351:D I *D sky130_fd_sc_hd__dfrtp_1
*I *341:X O *D sky130_fd_sc_hd__clkbuf_1
*CAP
1 *351:D 0
2 *341:X 0.0015261
3 *22:11 0.0015261
4 *22:11 *348:RESET_B 0.000150866
5 *22:11 *351:CLK 0
6 *22:11 *356:D 0.00033763
7 *22:11 *358:RESET_B 3.18676e-05
8 *22:11 *366:A 0
9 *22:11 *367:A 0
10 *22:11 *46:14 2.89016e-05
11 *22:11 *47:8 4.78056e-05
12 *22:11 *47:13 3.67452e-05
13 *22:11 *47:42 0
14 *22:11 *47:49 0
15 *22:11 *56:18 7.83659e-05
*RES
1 *341:X *22:11 42.1929 
2 *22:11 *351:D 9.3 
*END

*D_NET *23 0.00170928
*CONN
*I *352:D I *D sky130_fd_sc_hd__dfrtp_1
*I *344:X O *D sky130_fd_sc_hd__clkbuf_1
*CAP
1 *352:D 0.000569834
2 *344:X 0.000569834
3 *352:D *352:RESET_B 1.77668e-05
4 *352:D *48:19 0
5 *352:D *60:12 0
6 *352:D *65:19 1.06225e-05
7 *346:D *352:D 0.000541222
*RES
1 *344:X *352:D 35.4036 
*END

*D_NET *24 0.00060117
*CONN
*I *322:B I *D sky130_fd_sc_hd__or2_1
*I *321:X O *D sky130_fd_sc_hd__mux2_1
*CAP
1 *322:B 0.000198678
2 *321:X 0.000198678
3 *322:B *338:A 0
4 *322:B *373:A 0.000142856
5 *322:B *43:15 6.09572e-05
*RES
1 *321:X *322:B 30.9036 
*END

*D_NET *25 0.000797396
*CONN
*I *323:A I *D sky130_fd_sc_hd__clkbuf_1
*I *322:X O *D sky130_fd_sc_hd__or2_1
*CAP
1 *323:A 0.000206066
2 *322:X 0.000206066
3 *323:A *322:A 0.000112966
4 *323:A *47:103 5.52238e-05
5 *323:A *58:21 0.000146474
6 *323:A *63:21 0
7 *345:D *323:A 7.05982e-05
*RES
1 *322:X *323:A 32.5107 
*END

*D_NET *26 0.00165451
*CONN
*I *325:B I *D sky130_fd_sc_hd__or2_1
*I *324:X O *D sky130_fd_sc_hd__mux2_1
*CAP
1 *325:B 0.000693824
2 *324:X 0.000693824
3 *325:B *329:A 0.00012401
4 *325:B *373:A 0.00014285
*RES
1 *324:X *325:B 36.6536 
*END

*D_NET *27 0.000934977
*CONN
*I *326:A I *D sky130_fd_sc_hd__clkbuf_1
*I *325:X O *D sky130_fd_sc_hd__or2_1
*CAP
1 *326:A 0.00027934
2 *325:X 0.00027934
3 *326:A *329:A 0.000181254
4 *326:A *58:38 0.000142976
5 *17:18 *326:A 5.20669e-05
*RES
1 *325:X *326:A 25.0286 
*END

*D_NET *28 0.000762614
*CONN
*I *328:B I *D sky130_fd_sc_hd__or2_1
*I *327:X O *D sky130_fd_sc_hd__mux2_1
*CAP
1 *328:B 0.000208809
2 *327:X 0.000208809
3 *328:B *328:A 0.000162118
4 *328:B *64:17 0.000125731
5 *21:25 *328:B 5.71472e-05
*RES
1 *327:X *328:B 31.9036 
*END

*D_NET *29 0.0031207
*CONN
*I *329:A I *D sky130_fd_sc_hd__clkbuf_1
*I *328:X O *D sky130_fd_sc_hd__or2_1
*CAP
1 *329:A 0.00114061
2 *328:X 0.00114061
3 *329:A *58:38 0.000534222
4 *325:B *329:A 0.00012401
5 *326:A *329:A 0.000181254
*RES
1 *328:X *329:A 45.9036 
*END

*D_NET *30 0.000411988
*CONN
*I *331:B I *D sky130_fd_sc_hd__or2_1
*I *330:X O *D sky130_fd_sc_hd__mux2_1
*CAP
1 *331:B 0.000129781
2 *330:X 0.000129781
3 *331:B *331:A 5.33882e-05
4 *331:B *43:63 9.90367e-05
5 *331:B *52:10 0
6 *331:B *52:21 0
*RES
1 *330:X *331:B 29.8857 
*END

*D_NET *31 0.00199731
*CONN
*I *332:A I *D sky130_fd_sc_hd__clkbuf_1
*I *331:X O *D sky130_fd_sc_hd__or2_1
*CAP
1 *332:A 0.00071674
2 *331:X 0.00071674
3 *332:A *328:A 0.000110371
4 *332:A *371:A 3.71496e-05
5 *332:A *373:A 0
6 *332:A *44:19 0.000216304
7 *332:A *58:38 0.000142856
8 *19:13 *332:A 5.71472e-05
*RES
1 *331:X *332:A 38.7964 
*END

*D_NET *32 0.00152347
*CONN
*I *334:B I *D sky130_fd_sc_hd__or2_1
*I *333:X O *D sky130_fd_sc_hd__mux2_1
*CAP
1 *334:B 0.000213572
2 *333:X 0.000213572
3 *334:B *335:A 8.37104e-05
4 *334:B *340:A 9.02331e-05
5 *334:B *43:17 1.24368e-05
6 *334:B *43:22 0.000224341
7 *348:D *334:B 0.000651729
8 *19:13 *334:B 3.38774e-05
*RES
1 *333:X *334:B 26.1536 
*END

*D_NET *33 0.00101524
*CONN
*I *335:A I *D sky130_fd_sc_hd__clkbuf_1
*I *334:X O *D sky130_fd_sc_hd__or2_1
*CAP
1 *335:A 0.000349628
2 *334:X 0.000349628
3 *335:A *360:CLK 0.000123288
4 *335:A *54:8 6.09476e-05
5 *334:B *335:A 8.37104e-05
6 *348:D *335:A 4.8035e-05
*RES
1 *334:X *335:A 33.0643 
*END

*D_NET *34 0.000609703
*CONN
*I *337:B I *D sky130_fd_sc_hd__or2_1
*I *336:X O *D sky130_fd_sc_hd__mux2_1
*CAP
1 *337:B 0.000179269
2 *336:X 0.000179269
3 *337:B *336:S 2.84026e-05
4 *337:B *337:A 7.55152e-05
5 *337:B *375:A 0.000147246
*RES
1 *336:X *337:B 30.9036 
*END

*D_NET *35 0.00336055
*CONN
*I *338:A I *D sky130_fd_sc_hd__clkbuf_1
*I *337:X O *D sky130_fd_sc_hd__or2_1
*CAP
1 *338:A 0.00135269
2 *337:X 0.00135269
3 *338:A *43:6 0
4 *338:A *43:15 0
5 *338:A *47:103 0.000185643
6 *338:A *52:10 0.000132292
7 *338:A *52:21 0.000270943
8 *322:B *338:A 0
9 *19:13 *338:A 6.62983e-05
*RES
1 *337:X *338:A 47.7964 
*END

*D_NET *36 0.000616101
*CONN
*I *340:B I *D sky130_fd_sc_hd__or2_1
*I *339:X O *D sky130_fd_sc_hd__mux2_1
*CAP
1 *340:B 0.000128841
2 *339:X 0.000128841
3 *340:B *341:A 7.83587e-05
4 *340:B *359:D 9.60875e-05
5 *340:B *360:CLK 0.000148189
6 *340:B *54:8 3.57844e-05
*RES
1 *339:X *340:B 30.4929 
*END

*D_NET *37 0.00104595
*CONN
*I *341:A I *D sky130_fd_sc_hd__clkbuf_1
*I *340:X O *D sky130_fd_sc_hd__or2_1
*CAP
1 *341:A 0.000237397
2 *340:X 0.000237397
3 *341:A *360:CLK 3.57844e-05
4 *341:A *376:A 0.000119618
5 *341:A *54:8 0.000195562
6 *340:B *341:A 7.83587e-05
7 *348:D *341:A 0.00014183
*RES
1 *340:X *341:A 33.0286 
*END

*D_NET *38 0.000863975
*CONN
*I *343:B I *D sky130_fd_sc_hd__or2_1
*I *342:X O *D sky130_fd_sc_hd__mux2_1
*CAP
1 *343:B 0.000185527
2 *342:X 0.000185527
3 *343:B *43:15 0.000192804
4 *343:B *47:103 0.000104974
5 *343:B *62:38 0.000139913
6 *363:A *343:B 5.52302e-05
*RES
1 *342:X *343:B 32.35 
*END

*D_NET *39 0.00127446
*CONN
*I *344:A I *D sky130_fd_sc_hd__clkbuf_1
*I *343:X O *D sky130_fd_sc_hd__or2_1
*CAP
1 *344:A 0.000557212
2 *343:X 0.000557212
3 *344:A *43:15 4.35506e-05
4 *344:A *46:19 0
5 *66:DIODE *344:A 8.75817e-05
6 *363:A *344:A 2.89016e-05
*RES
1 *343:X *344:A 35.3857 
*END

*D_NET *40 0.00392772
*CONN
*I *364:A I *D sky130_fd_sc_hd__clkbuf_16
*I *365:A I *D sky130_fd_sc_hd__clkbuf_16
*I *363:X O *D sky130_fd_sc_hd__clkbuf_16
*CAP
1 *364:A 0.00039037
2 *365:A 8.18681e-05
3 *363:X 0.000337983
4 *40:8 0.000810221
5 *364:A *346:RESET_B 9.09013e-05
6 *364:A *48:7 5.52302e-05
7 *364:A *58:13 0.00012389
8 *365:A *48:8 7.2754e-05
9 *365:A *48:19 1.76039e-05
10 *40:8 *360:RESET_B 5.01213e-05
11 *40:8 *44:15 0.000395804
12 *40:8 *48:8 1.08359e-05
13 *346:D *364:A 0.000457531
14 *347:D *364:A 0.000273269
15 *1:13 *365:A 8.9163e-05
16 *1:13 *40:8 6.19181e-05
17 *18:11 *364:A 0.000608253
*RES
1 *363:X *40:8 19.2643 
2 *40:8 *365:A 16.05 
3 *40:8 *364:A 28.3179 
*END

*D_NET *41 0.0120342
*CONN
*I *360:CLK I *D sky130_fd_sc_hd__dfrtp_1
*I *346:CLK I *D sky130_fd_sc_hd__dfrtp_1
*I *348:CLK I *D sky130_fd_sc_hd__dfrtp_1
*I *349:CLK I *D sky130_fd_sc_hd__dfrtp_1
*I *347:CLK I *D sky130_fd_sc_hd__dfrtp_1
*I *358:CLK I *D sky130_fd_sc_hd__dfrtp_1
*I *356:CLK I *D sky130_fd_sc_hd__dfstp_1
*I *359:CLK I *D sky130_fd_sc_hd__dfrtp_1
*I *351:CLK I *D sky130_fd_sc_hd__dfrtp_1
*I *364:X O *D sky130_fd_sc_hd__clkbuf_16
*CAP
1 *360:CLK 0.000514682
2 *346:CLK 5.35369e-05
3 *348:CLK 0.00080844
4 *349:CLK 3.82418e-05
5 *347:CLK 0.00017292
6 *358:CLK 0.000446136
7 *356:CLK 0
8 *359:CLK 7.9322e-05
9 *351:CLK 0.000166092
10 *364:X 0
11 *41:77 0.00109716
12 *41:38 0.000859232
13 *41:33 0.00070543
14 *41:30 0.00128845
15 *41:19 7.9322e-05
16 *41:8 0.000336136
17 *41:7 0.000502894
18 *41:4 0.000808799
19 *346:CLK *58:13 3.92757e-05
20 *348:CLK *359:D 0.000383295
21 *351:CLK *358:RESET_B 3.18676e-05
22 *351:CLK *46:14 2.89114e-05
23 *358:CLK *358:D 0
24 *359:CLK *359:D 0.000230475
25 *360:CLK *334:A 0
26 *360:CLK *339:S 0
27 *360:CLK *359:D 0.000117553
28 *360:CLK *54:8 3.096e-05
29 *360:CLK *57:15 0.000520894
30 *360:CLK *58:13 5.01213e-05
31 *360:CLK *59:9 9.66968e-05
32 *41:8 *359:D 0.000216297
33 *41:30 *359:D 7.6644e-05
34 *41:33 *51:7 1.49867e-05
35 *41:38 *51:7 1.88665e-05
36 *335:A *360:CLK 0.000123288
37 *340:B *360:CLK 0.000148189
38 *341:A *360:CLK 3.57844e-05
39 *347:D *347:CLK 0.000154513
40 *347:D *41:7 0.000393943
41 *347:D *41:77 0.000825887
42 *349:D *41:33 0.000266549
43 *12:16 *358:CLK 0.000210535
44 *12:16 *41:38 6.19181e-05
45 *22:11 *351:CLK 0
*RES
1 *364:X *41:4 9.3 
2 *41:4 *41:7 8.32143 
3 *41:7 *41:8 3.16071 
4 *41:8 *351:CLK 16.8893 
5 *41:8 *41:19 4.5 
6 *41:19 *359:CLK 11.4786 
7 *41:19 *356:CLK 9.3 
8 *41:7 *41:30 1.03571 
9 *41:30 *41:33 10.375 
10 *41:33 *41:38 7.91071 
11 *41:38 *358:CLK 22.6036 
12 *41:38 *347:CLK 17.6214 
13 *41:33 *349:CLK 10.0321 
14 *41:30 *348:CLK 25.925 
15 *41:4 *41:77 12.4286 
16 *41:77 *346:CLK 14.8357 
17 *41:77 *360:CLK 26.0857 
*END

*D_NET *42 0.00828737
*CONN
*I *354:CLK I *D sky130_fd_sc_hd__dfrtp_1
*I *350:CLK I *D sky130_fd_sc_hd__dfrtp_1
*I *345:CLK I *D sky130_fd_sc_hd__dfrtp_1
*I *362:CLK I *D sky130_fd_sc_hd__dfrtp_1
*I *355:CLK I *D sky130_fd_sc_hd__dfrtp_1
*I *361:CLK I *D sky130_fd_sc_hd__dfrtp_1
*I *353:CLK I *D sky130_fd_sc_hd__dfrtp_1
*I *352:CLK I *D sky130_fd_sc_hd__dfrtp_1
*I *365:X O *D sky130_fd_sc_hd__clkbuf_16
*CAP
1 *354:CLK 0
2 *350:CLK 3.98612e-05
3 *345:CLK 2.34258e-05
4 *362:CLK 2.58191e-05
5 *355:CLK 0.000498996
6 *361:CLK 0
7 *353:CLK 0.000130463
8 *352:CLK 0.000144132
9 *365:X 0
10 *42:57 0.000213538
11 *42:51 0.000210108
12 *42:33 0.000647154
13 *42:29 0.000220864
14 *42:28 0.00111117
15 *42:15 0.00117037
16 *42:4 0.000179617
17 *345:CLK *350:RESET_B 5.33334e-05
18 *345:CLK *55:16 5.33334e-05
19 *350:CLK *350:RESET_B 7.02611e-05
20 *350:CLK *55:16 1.5424e-05
21 *352:CLK *352:RESET_B 1.74352e-05
22 *352:CLK *45:27 0.000788671
23 *352:CLK *65:19 0.000830132
24 *353:CLK *361:D 0
25 *353:CLK *45:34 8.9163e-05
26 *355:CLK *355:RESET_B 0.00022015
27 *355:CLK *64:8 0.000149802
28 *362:CLK *65:21 0.00014285
29 *42:15 *65:19 9.71197e-05
30 *42:28 *322:A 3.17163e-05
31 *42:28 *362:D 0.000142856
32 *42:28 *45:34 2.16719e-05
33 *42:28 *63:6 0
34 *42:28 *65:19 0.000377154
35 *42:28 *65:21 9.22103e-06
36 *42:29 *373:A 2.84398e-05
37 *42:29 *64:8 0
38 *42:33 *64:8 0
39 *42:51 *373:A 8.15939e-05
40 *42:57 *373:A 4.34097e-05
41 *42:57 *55:16 0
42 *42:57 *64:17 0
43 *17:18 *362:CLK 7.77652e-05
44 *17:18 *42:28 0.000140933
45 *17:18 *42:29 9.69119e-06
46 *17:18 *42:51 4.47162e-05
47 *17:18 *42:57 4.46186e-06
48 *21:25 *350:CLK 9.71197e-05
49 *21:25 *42:57 3.34295e-05
*RES
1 *365:X *42:4 9.3 
2 *42:4 *352:CLK 17.6571 
3 *42:4 *42:15 5.44643 
4 *42:15 *353:CLK 16.05 
5 *42:15 *42:28 23.1964 
6 *42:28 *42:29 1.03571 
7 *42:29 *42:33 6.75 
8 *42:33 *361:CLK 9.3 
9 *42:33 *355:CLK 19.6929 
10 *42:29 *362:CLK 15.1571 
11 *42:28 *42:51 1.94643 
12 *42:51 *42:57 7.28571 
13 *42:57 *345:CLK 10.2464 
14 *42:57 *350:CLK 10.6571 
15 *42:51 *354:CLK 13.8 
*END

*D_NET *43 0.0105389
*CONN
*I *324:A1 I *D sky130_fd_sc_hd__mux2_1
*I *327:A1 I *D sky130_fd_sc_hd__mux2_1
*I *330:A1 I *D sky130_fd_sc_hd__mux2_1
*I *321:A1 I *D sky130_fd_sc_hd__mux2_1
*I *333:A1 I *D sky130_fd_sc_hd__mux2_1
*I *342:A1 I *D sky130_fd_sc_hd__mux2_1
*I *336:A1 I *D sky130_fd_sc_hd__mux2_1
*I *339:A1 I *D sky130_fd_sc_hd__mux2_1
*I *369:X O *D sky130_fd_sc_hd__clkbuf_2
*CAP
1 *324:A1 0.000244432
2 *327:A1 0.00024769
3 *330:A1 0
4 *321:A1 0
5 *333:A1 0
6 *342:A1 0.000162102
7 *336:A1 0.000193457
8 *339:A1 9.93976e-05
9 *369:X 0.000505761
10 *43:69 0.000588385
11 *43:63 0.000430837
12 *43:54 0.000334573
13 *43:22 0.00042809
14 *43:17 0.000375339
15 *43:15 0.000470047
16 *43:6 0.000897806
17 *324:A1 *379:A 0.000340649
18 *327:A1 *330:S 0
19 *327:A1 *331:A 0
20 *327:A1 *58:38 5.49544e-05
21 *336:A1 *336:A0 0.000185124
22 *336:A1 *55:20 7.6644e-05
23 *336:A1 *56:34 6.91157e-05
24 *339:A1 *57:15 0.0001399
25 *342:A1 *375:A 0.000110627
26 *342:A1 *53:8 7.54868e-05
27 *342:A1 *54:8 0
28 *342:A1 *55:20 5.33005e-05
29 *342:A1 *58:13 5.49489e-05
30 *43:6 *52:21 0
31 *43:15 *333:S 5.52302e-05
32 *43:15 *46:19 0
33 *43:15 *47:103 0.000893292
34 *43:17 *333:A0 2.28598e-05
35 *43:17 *333:S 4.18895e-05
36 *43:17 *340:A 0.000122591
37 *43:17 *61:17 9.60939e-05
38 *43:22 *340:A 0.000226264
39 *43:22 *55:20 0.000263663
40 *43:22 *56:34 0.000265378
41 *43:63 *321:A0 0.000317082
42 *43:63 *330:A0 3.99614e-06
43 *43:63 *379:A 3.08664e-05
44 *43:63 *57:15 0.000775622
45 *43:69 *379:A 8.52125e-05
46 *66:DIODE *43:15 0.000182598
47 *322:B *43:15 6.09572e-05
48 *331:B *43:63 9.90367e-05
49 *334:B *43:17 1.24368e-05
50 *334:B *43:22 0.000224341
51 *338:A *43:6 0
52 *338:A *43:15 0
53 *343:B *43:15 0.000192804
54 *344:A *43:15 4.35506e-05
55 *363:A *43:15 0.000266479
56 *19:13 *327:A1 2.2351e-05
57 *19:13 *43:17 2.05612e-05
58 *21:25 *327:A1 7.51221e-05
*RES
1 *369:X *43:6 22.7286 
2 *43:6 *43:15 17.0714 
3 *43:15 *43:17 2.17857 
4 *43:17 *43:22 10.1429 
5 *43:22 *339:A1 15.1571 
6 *43:22 *336:A1 17.0143 
7 *43:17 *342:A1 21.3893 
8 *43:15 *333:A1 9.3 
9 *43:6 *43:54 4.5 
10 *43:54 *321:A1 9.3 
11 *43:54 *43:63 8.89286 
12 *43:63 *330:A1 9.3 
13 *43:63 *43:69 1.35714 
14 *43:69 *327:A1 22.4071 
15 *43:69 *324:A1 12.7107 
*END

*D_NET *44 0.0101797
*CONN
*I *371:A I *D sky130_fd_sc_hd__buf_2
*I *324:A0 I *D sky130_fd_sc_hd__mux2_1
*I *346:Q O *D sky130_fd_sc_hd__dfrtp_1
*CAP
1 *371:A 0.00173877
2 *324:A0 0
3 *346:Q 0.00103699
4 *44:19 0.00200381
5 *44:15 0.00130204
6 *371:A *373:A 2.44318e-05
7 *371:A *379:A 0.000371786
8 *44:15 *367:A 0.000316184
9 *44:15 *47:103 6.09476e-05
10 *44:15 *55:20 1.54142e-05
11 *44:15 *58:21 0.0012184
12 *44:19 *324:S 5.33005e-05
13 *44:19 *328:A 3.34366e-05
14 *44:19 *373:A 4.72917e-05
15 *44:19 *379:A 0.000139907
16 *44:19 *55:16 4.32957e-05
17 *44:19 *64:17 0.000427375
18 dq[6] *371:A 8.32152e-05
19 *332:A *371:A 3.71496e-05
20 *332:A *44:19 0.000216304
21 *345:D *44:15 0.000613845
22 *21:25 *44:19 0
23 *40:8 *44:15 0.000395804
*RES
1 *346:Q *44:15 45.2464 
2 *44:15 *44:19 11.75 
3 *44:19 *324:A0 9.3 
4 *44:19 *371:A 49.8714 
*END

*D_NET *45 0.0171547
*CONN
*I *342:S I *D sky130_fd_sc_hd__mux2_1
*I *322:A I *D sky130_fd_sc_hd__or2_1
*I *372:A I *D sky130_fd_sc_hd__buf_2
*I *358:D I *D sky130_fd_sc_hd__dfrtp_1
*I *359:Q O *D sky130_fd_sc_hd__dfrtp_1
*CAP
1 *342:S 0.000225475
2 *322:A 0.000361146
3 *372:A 0
4 *358:D 0.0002082
5 *359:Q 0
6 *45:34 0.00298905
7 *45:27 0.00455492
8 *45:15 0.00324934
9 *45:4 0.00202735
10 *322:A *52:10 0
11 *342:S *334:A 2.95641e-05
12 *342:S *47:79 1.99881e-05
13 *342:S *53:8 0
14 *342:S *54:8 0.000301064
15 *342:S *55:20 0.000143651
16 *342:S *56:18 5.33433e-05
17 *342:S *58:13 0.000316985
18 *45:15 *356:SET_B 4.7763e-05
19 *45:15 *359:D 0.000402503
20 *45:15 *47:79 0.000745979
21 *45:27 *352:RESET_B 5.03772e-05
22 *45:27 *47:79 0.000255525
23 *45:27 *48:19 8.23597e-06
24 *45:27 *54:8 4.34472e-05
25 last_cycle *45:34 7.6644e-05
26 *323:A *322:A 0.000112966
27 *352:CLK *45:27 0.000788671
28 *353:CLK *45:34 8.9163e-05
29 *358:CLK *358:D 0
30 *12:16 *358:D 0
31 *42:28 *322:A 3.17163e-05
32 *42:28 *45:34 2.16719e-05
*RES
1 *359:Q *45:4 9.3 
2 *45:4 *358:D 22.0679 
3 *45:4 *45:15 27.625 
4 *45:15 *45:27 25.7554 
5 *45:27 *45:34 45.5357 
6 *45:34 *372:A 13.8 
7 *45:27 *322:A 20.6036 
8 *45:15 *342:S 20.8714 
*END

*D_NET *46 0.0116948
*CONN
*I *321:S I *D sky130_fd_sc_hd__mux2_1
*I *373:A I *D sky130_fd_sc_hd__buf_2
*I *358:Q O *D sky130_fd_sc_hd__dfrtp_1
*CAP
1 *321:S 0
2 *373:A 0.0013387
3 *358:Q 0.00162338
4 *46:19 0.00202914
5 *46:14 0.00231383
6 *373:A *324:S 9.41642e-05
7 *373:A *330:S 0.000187041
8 *373:A *379:A 0.00020104
9 *373:A *57:15 0.000433036
10 *46:14 *351:RESET_B 1.52723e-05
11 *46:14 *358:RESET_B 0.000180325
12 *46:14 *47:49 1.49974e-05
13 *46:14 *48:19 1.63058e-05
14 *46:14 *54:8 0.000495276
15 *46:14 *60:12 0.000451463
16 *46:14 *61:17 0.000753293
17 *46:19 *360:RESET_B 0
18 *46:19 *57:15 0.000228514
19 *322:B *373:A 0.000142856
20 *325:B *373:A 0.00014285
21 *332:A *373:A 0
22 *344:A *46:19 0
23 *351:CLK *46:14 2.89114e-05
24 *371:A *373:A 2.44318e-05
25 *1:13 *46:19 0.000610363
26 *21:25 *373:A 0.000140021
27 *22:11 *46:14 2.89016e-05
28 *42:29 *373:A 2.84398e-05
29 *42:51 *373:A 8.15939e-05
30 *42:57 *373:A 4.34097e-05
31 *43:15 *46:19 0
32 *44:19 *373:A 4.72917e-05
*RES
1 *358:Q *46:14 43.1125 
2 *46:14 *46:19 17.8839 
3 *46:19 *373:A 44.925 
4 *46:19 *321:S 9.3 
*END

*D_NET *47 0.0168855
*CONN
*I *348:RESET_B I *D sky130_fd_sc_hd__dfrtp_1
*I *350:RESET_B I *D sky130_fd_sc_hd__dfrtp_1
*I *345:RESET_B I *D sky130_fd_sc_hd__dfrtp_1
*I *346:RESET_B I *D sky130_fd_sc_hd__dfrtp_1
*I *356:SET_B I *D sky130_fd_sc_hd__dfstp_1
*I *351:RESET_B I *D sky130_fd_sc_hd__dfrtp_1
*I *358:RESET_B I *D sky130_fd_sc_hd__dfrtp_1
*I *349:RESET_B I *D sky130_fd_sc_hd__dfrtp_1
*I *359:RESET_B I *D sky130_fd_sc_hd__dfrtp_1
*I *347:RESET_B I *D sky130_fd_sc_hd__dfrtp_1
*I *366:X O *D sky130_fd_sc_hd__clkbuf_4
*CAP
1 *348:RESET_B 0.000181758
2 *350:RESET_B 0.000443455
3 *345:RESET_B 6.7761e-06
4 *346:RESET_B 2.39174e-05
5 *356:SET_B 0.000745418
6 *351:RESET_B 5.60818e-06
7 *358:RESET_B 0.000403663
8 *349:RESET_B 1.31618e-05
9 *359:RESET_B 0.000201967
10 *347:RESET_B 8.3347e-06
11 *366:X 0.000139214
12 *47:103 0.00150176
13 *47:79 0.00172074
14 *47:49 0.000754495
15 *47:42 0.000911486
16 *47:32 0.000479303
17 *47:13 0.000450515
18 *47:8 0.000294095
19 *47:7 0.000374853
20 *348:RESET_B *359:D 0.000142047
21 *349:RESET_B *51:7 4.85567e-05
22 *350:RESET_B *55:16 9.094e-05
23 *47:7 *366:A 5.52238e-05
24 *47:8 *359:D 4.43046e-05
25 *47:13 *356:D 0.000197984
26 *47:13 *359:D 0.000142327
27 *47:13 *58:13 0.000489109
28 *47:42 *367:A 3.0285e-05
29 *47:42 *51:7 0.000269428