* SPICE netlist generated by Yosys 0.22+57 (git sha1 518194fac, gcc 11.2.0-19ubuntu1 -fPIC -Os)

.SUBCKT prsgen8 clk rst compare.0 compare.1 compare.2 compare.3 compare.4 compare.5 compare.6 compare.7 out
X0 sr.0 1 NOT
X1 rst 2 NOT
X2 sr.1 3 NOT
X3 sr.3 4 NOT
X4 sr.4 5 NOT
X5 sr.5 6 NOT
X6 sr.6 7 NOT
X7 sr.7 8 NOT
X8 compare.1 9 NOT
X9 compare.2 10 NOT
X10 compare.3 11 NOT
X11 compare.4 12 NOT
X12 compare.5 13 NOT
X13 compare.7 14 NOT
X14 sr.0 rst 15 NOR
X15 15 16.1 NOT
X16 rst 3 16.2 NOR
X17 rst sr.2 17 NOR
X18 17 16.3 NOT
X19 rst 4 16.4 NOR
X20 rst sr.4 18 NOR
X21 18 16.5 NOT
X22 rst 6 16.6 NOR
X23 rst sr.6 19 NOR
X24 19 16.7 NOT
X25 6 8 20 NAND
X26 sr.5 sr.7 21 NAND
X27 20 21 22 NAND
X28 4 sr.4 23 NOR
X29 sr.3 5 24 NOR
X30 23 24 25 NOR
X31 22 25 26 NOR
X32 22 25 27 NAND
X33 2 27 28 NAND
X34 26 28 16.0 NOR
X35 7 compare.6 29 NOR
X36 sr.5 13 30 NOR
X37 3 compare.1 31 NAND
X38 1 compare.0 32 NOR
X39 31 32 33 NAND
X40 4 compare.3 34 NOR
X41 sr.3 11 35 NAND
X42 sr.2 10 36 NOR
X43 34 36 37 NOR
X44 sr.1 9 38 NAND
X45 sr.2 10 39 NAND
X46 33 38 40 NAND
X47 37 39 41 NAND
X48 40 41 42 NOR
X49 35 36 43 NAND
X50 sr.4 12 44 NOR
X51 sr.3 11 45 NOR
X52 44 45 46 NOR
X53 43 46 47 NAND
X54 42 47 48 NOR
X55 sr.5 13 49 NAND
X56 sr.4 12 50 NAND
X57 49 50 51 NAND
X58 48 51 52 NOR
X59 30 52 53 NOR
X60 29 53 54 NOR
X61 8 compare.7 55 NAND
X62 7 compare.6 56 NAND
X63 55 56 57 NAND
X64 54 57 58 NOR
X65 sr.7 14 59 NAND
X66 2 59 60 NAND
X67 58 60 61 NOR
X68 clk 61 out DFF
X69 clk 16.0 sr.0 DFF
X70 clk 16.1 sr.1 DFF
X71 clk 16.2 sr.2 DFF
X72 clk 16.3 sr.3 DFF
X73 clk 16.4 sr.4 DFF
X74 clk 16.5 sr.5 DFF
X75 clk 16.6 sr.6 DFF
X76 clk 16.7 sr.7 DFF
.ENDS prsgen8

************************
* end of SPICE netlist *
************************

