*SPEF "ieee 1481-1999"
*DESIGN "dac_con"
*DATE "11:11:11 Fri 11 11, 1111"
*VENDOR "OpenRCX"
*PROGRAM "Parallel Extraction"
*VERSION "1.0"
*DESIGN_FLOW "NAME_SCOPE LOCAL" "PIN_CAP NONE"
*DIVIDER /
*DELIMITER :
*BUS_DELIMITER []
*T_UNIT 1 NS
*C_UNIT 1 PF
*R_UNIT 1 OHM
*L_UNIT 1 HENRY

*NAME_MAP
*1 clk
*2 dac_in[0]
*3 dac_in[1]
*4 dac_in[2]
*5 dac_in[3]
*6 dac_in[4]
*7 dac_in[5]
*8 dac_in[6]
*9 dac_in[7]
*10 dac_in[8]
*11 dac_in[9]
*12 dummy
*13 llsb
*14 llsb_n
*15 lsb[0]
*16 lsb[1]
*17 lsb[2]
*18 lsb[3]
*19 lsb[4]
*20 lsb[5]
*21 lsb_n[0]
*22 lsb_n[1]
*23 lsb_n[2]
*24 lsb_n[3]
*25 lsb_n[4]
*26 lsb_n[5]
*27 msb[0]
*28 msb[10]
*29 msb[11]
*30 msb[12]
*31 msb[13]
*32 msb[14]
*33 msb[15]
*34 msb[1]
*35 msb[2]
*36 msb[3]
*37 msb[4]
*38 msb[5]
*39 msb[6]
*40 msb[7]
*41 msb[8]
*42 msb[9]
*43 msb_n[0]
*44 msb_n[10]
*45 msb_n[11]
*46 msb_n[12]
*47 msb_n[13]
*48 msb_n[14]
*49 msb_n[15]
*50 msb_n[1]
*51 msb_n[2]
*52 msb_n[3]
*53 msb_n[4]
*54 msb_n[5]
*55 msb_n[6]
*56 msb_n[7]
*57 msb_n[8]
*58 msb_n[9]
*59 rst_n
*60 test_mode
*63 _000_
*64 _001_
*65 _002_
*66 _003_
*67 _004_
*68 _005_
*69 _006_
*70 _007_
*71 _008_
*72 _009_
*73 _010_
*74 _011_
*75 _012_
*76 _013_
*77 _014_
*78 _015_
*79 _016_
*80 _017_
*81 _018_
*82 _019_
*83 _020_
*84 _021_
*85 _022_
*86 _023_
*87 _024_
*88 _025_
*89 _026_
*90 _027_
*91 _028_
*92 _029_
*93 _030_
*94 _031_
*95 _032_
*96 _033_
*97 _034_
*98 _035_
*99 _036_
*100 _037_
*101 _038_
*102 _039_
*103 _040_
*104 _041_
*105 _042_
*106 _043_
*107 _044_
*108 _045_
*109 _046_
*110 _047_
*111 _048_
*112 _049_
*113 _050_
*114 _051_
*115 _052_
*116 _053_
*117 _054_
*118 _055_
*119 _056_
*120 _057_
*121 _058_
*122 _059_
*123 _060_
*124 _061_
*125 _062_
*126 _063_
*127 _064_
*128 _065_
*129 _066_
*130 _067_
*131 _068_
*132 _069_
*133 _070_
*134 _071_
*135 _072_
*136 _073_
*137 _074_
*138 _075_
*139 _076_
*140 _077_
*141 _078_
*142 _079_
*143 _080_
*144 _081_
*145 _082_
*146 _083_
*147 _084_
*148 _085_
*149 _086_
*150 _087_
*151 _088_
*152 _089_
*153 _090_
*154 _091_
*155 _092_
*156 clknet_0_clk
*157 clknet_2_0__leaf_clk
*158 clknet_2_1__leaf_clk
*159 clknet_2_2__leaf_clk
*160 clknet_2_3__leaf_clk
*161 cnt_r\[0\]
*162 cnt_r\[1\]
*163 cnt_r\[2\]
*164 cnt_r\[3\]
*165 cnt_r\[4\]
*166 cnt_r\[5\]
*167 cnt_r\[6\]
*168 cnt_r\[7\]
*169 cnt_r\[8\]
*170 cnt_r\[9\]
*171 net1
*172 net10
*173 net11
*174 net12
*175 net13
*176 net14
*177 net15
*178 net16
*179 net17
*180 net18
*181 net19
*182 net2
*183 net20
*184 net21
*185 net22
*186 net23
*187 net24
*188 net25
*189 net26
*190 net27
*191 net28
*192 net29
*193 net3
*194 net30
*195 net31
*196 net32
*197 net33
*198 net34
*199 net35
*200 net36
*201 net37
*202 net38
*203 net39
*204 net4
*205 net40
*206 net41
*207 net42
*208 net43
*209 net44
*210 net45
*211 net46
*212 net47
*213 net48
*214 net49
*215 net5
*216 net50
*217 net51
*218 net52
*219 net53
*220 net54
*221 net55
*222 net56
*223 net57
*224 net58
*225 net59
*226 net6
*227 net7
*228 net8
*229 net9
*230 ANTENNA__093__A
*231 ANTENNA_clkbuf_0_clk_A
*232 ANTENNA_input10_A
*233 ANTENNA_input11_A
*234 ANTENNA_input12_A
*235 ANTENNA_input13_A
*236 ANTENNA_input1_A
*237 ANTENNA_input2_A
*238 ANTENNA_input3_A
*239 ANTENNA_input4_A
*240 ANTENNA_input5_A
*241 ANTENNA_input6_A
*242 ANTENNA_input7_A
*243 ANTENNA_input8_A
*244 ANTENNA_input9_A
*245 ANTENNA_output14_A
*246 FILLER_0_104
*247 FILLER_0_108
*248 FILLER_0_113
*249 FILLER_0_120
*250 FILLER_0_128
*251 FILLER_0_132
*252 FILLER_0_138
*253 FILLER_0_141
*254 FILLER_0_145
*255 FILLER_0_19
*256 FILLER_0_26
*257 FILLER_0_29
*258 FILLER_0_3
*259 FILLER_0_35
*260 FILLER_0_39
*261 FILLER_0_47
*262 FILLER_0_54
*263 FILLER_0_57
*264 FILLER_0_62
*265 FILLER_0_68
*266 FILLER_0_72
*267 FILLER_0_78
*268 FILLER_0_82
*269 FILLER_0_85
*270 FILLER_0_89
*271 FILLER_0_96
*272 FILLER_10_111
*273 FILLER_10_123
*274 FILLER_10_135
*275 FILLER_10_139
*276 FILLER_10_141
*277 FILLER_10_145
*278 FILLER_10_15
*279 FILLER_10_27
*280 FILLER_10_29
*281 FILLER_10_3
*282 FILLER_10_41
*283 FILLER_10_65
*284 FILLER_10_71
*285 FILLER_10_78
*286 FILLER_10_85
*287 FILLER_10_92
*288 FILLER_10_99
*289 FILLER_11_100
*290 FILLER_11_113
*291 FILLER_11_125
*292 FILLER_11_137
*293 FILLER_11_145
*294 FILLER_11_15
*295 FILLER_11_27
*296 FILLER_11_3
*297 FILLER_11_39
*298 FILLER_11_47
*299 FILLER_11_54
*300 FILLER_11_57
*301 FILLER_11_63
*302 FILLER_11_80
*303 FILLER_11_88
*304 FILLER_12_109
*305 FILLER_12_121
*306 FILLER_12_133
*307 FILLER_12_139
*308 FILLER_12_141
*309 FILLER_12_145
*310 FILLER_12_15
*311 FILLER_12_27
*312 FILLER_12_29
*313 FILLER_12_3
*314 FILLER_12_40
*315 FILLER_12_48
*316 FILLER_12_54
*317 FILLER_12_62
*318 FILLER_12_70
*319 FILLER_12_78
*320 FILLER_12_85
*321 FILLER_12_97
*322 FILLER_13_111
*323 FILLER_13_113
*324 FILLER_13_125
*325 FILLER_13_137
*326 FILLER_13_145
*327 FILLER_13_15
*328 FILLER_13_27
*329 FILLER_13_3
*330 FILLER_13_47
*331 FILLER_13_55
*332 FILLER_13_57
*333 FILLER_13_68
*334 FILLER_13_75
*335 FILLER_13_87
*336 FILLER_13_99
*337 FILLER_14_104
*338 FILLER_14_116
*339 FILLER_14_128
*340 FILLER_14_141
*341 FILLER_14_145
*342 FILLER_14_15
*343 FILLER_14_27
*344 FILLER_14_29
*345 FILLER_14_3
*346 FILLER_14_41
*347 FILLER_14_59
*348 FILLER_14_79
*349 FILLER_14_83
*350 FILLER_14_85
*351 FILLER_14_92
*352 FILLER_15_108
*353 FILLER_15_113
*354 FILLER_15_125
*355 FILLER_15_137
*356 FILLER_15_145
*357 FILLER_15_15
*358 FILLER_15_27
*359 FILLER_15_3
*360 FILLER_15_51
*361 FILLER_15_55
*362 FILLER_15_57
*363 FILLER_15_68
*364 FILLER_15_77
*365 FILLER_15_84
*366 FILLER_15_96
*367 FILLER_16_109
*368 FILLER_16_121
*369 FILLER_16_133
*370 FILLER_16_139
*371 FILLER_16_141
*372 FILLER_16_145
*373 FILLER_16_15
*374 FILLER_16_27
*375 FILLER_16_29
*376 FILLER_16_3
*377 FILLER_16_41
*378 FILLER_16_52
*379 FILLER_16_66
*380 FILLER_16_79
*381 FILLER_16_83
*382 FILLER_16_85
*383 FILLER_16_97
*384 FILLER_17_101
*385 FILLER_17_109
*386 FILLER_17_113
*387 FILLER_17_125
*388 FILLER_17_137
*389 FILLER_17_145
*390 FILLER_17_15
*391 FILLER_17_27
*392 FILLER_17_3
*393 FILLER_17_35
*394 FILLER_17_39
*395 FILLER_17_53
*396 FILLER_17_57
*397 FILLER_17_62
*398 FILLER_17_82
*399 FILLER_17_89
*400 FILLER_18_109
*401 FILLER_18_121
*402 FILLER_18_133
*403 FILLER_18_139
*404 FILLER_18_141
*405 FILLER_18_145
*406 FILLER_18_15
*407 FILLER_18_27
*408 FILLER_18_29
*409 FILLER_18_3
*410 FILLER_18_33
*411 FILLER_18_39
*412 FILLER_18_67
*413 FILLER_18_80
*414 FILLER_18_85
*415 FILLER_18_97
*416 FILLER_19_111
*417 FILLER_19_113
*418 FILLER_19_125
*419 FILLER_19_137
*420 FILLER_19_145
*421 FILLER_19_15
*422 FILLER_19_27
*423 FILLER_19_3
*424 FILLER_19_35
*425 FILLER_19_44
*426 FILLER_19_54
*427 FILLER_19_57
*428 FILLER_19_69
*429 FILLER_19_75
*430 FILLER_19_81
*431 FILLER_19_90
*432 FILLER_19_99
*433 FILLER_1_102
*434 FILLER_1_105
*435 FILLER_1_111
*436 FILLER_1_113
*437 FILLER_1_117
*438 FILLER_1_125
*439 FILLER_1_130
*440 FILLER_1_137
*441 FILLER_1_14
*442 FILLER_1_144
*443 FILLER_1_22
*444 FILLER_1_28
*445 FILLER_1_3
*446 FILLER_1_34
*447 FILLER_1_54
*448 FILLER_1_57
*449 FILLER_1_72
*450 FILLER_1_78
*451 FILLER_1_8
*452 FILLER_1_84
*453 FILLER_1_96
*454 FILLER_20_102
*455 FILLER_20_114
*456 FILLER_20_126
*457 FILLER_20_138
*458 FILLER_20_141
*459 FILLER_20_145
*460 FILLER_20_15
*461 FILLER_20_27
*462 FILLER_20_29
*463 FILLER_20_3
*464 FILLER_20_37
*465 FILLER_20_45
*466 FILLER_20_59
*467 FILLER_20_68
*468 FILLER_20_81
*469 FILLER_20_85
*470 FILLER_20_90
*471 FILLER_21_111
*472 FILLER_21_113
*473 FILLER_21_125
*474 FILLER_21_137
*475 FILLER_21_145
*476 FILLER_21_15
*477 FILLER_21_27
*478 FILLER_21_3
*479 FILLER_21_46
*480 FILLER_21_50
*481 FILLER_21_54
*482 FILLER_21_57
*483 FILLER_21_63
*484 FILLER_21_80
*485 FILLER_21_87
*486 FILLER_21_99
*487 FILLER_22_102
*488 FILLER_22_114
*489 FILLER_22_126
*490 FILLER_22_138
*491 FILLER_22_141
*492 FILLER_22_145
*493 FILLER_22_15
*494 FILLER_22_27
*495 FILLER_22_29
*496 FILLER_22_3
*497 FILLER_22_34
*498 FILLER_22_43
*499 FILLER_22_47
*500 FILLER_22_64
*501 FILLER_22_74
*502 FILLER_22_81
*503 FILLER_22_85
*504 FILLER_22_90
*505 FILLER_23_101
*506 FILLER_23_109
*507 FILLER_23_113
*508 FILLER_23_125
*509 FILLER_23_137
*510 FILLER_23_145
*511 FILLER_23_15
*512 FILLER_23_27
*513 FILLER_23_3
*514 FILLER_23_45
*515 FILLER_23_53
*516 FILLER_23_57
*517 FILLER_23_75
*518 FILLER_23_82
*519 FILLER_23_89
*520 FILLER_24_109
*521 FILLER_24_121
*522 FILLER_24_133
*523 FILLER_24_139
*524 FILLER_24_141
*525 FILLER_24_145
*526 FILLER_24_15
*527 FILLER_24_27
*528 FILLER_24_29
*529 FILLER_24_3
*530 FILLER_24_41
*531 FILLER_24_65
*532 FILLER_24_76
*533 FILLER_24_85
*534 FILLER_24_97
*535 FILLER_25_107
*536 FILLER_25_111
*537 FILLER_25_113
*538 FILLER_25_125
*539 FILLER_25_137
*540 FILLER_25_145
*541 FILLER_25_15
*542 FILLER_25_27
*543 FILLER_25_3
*544 FILLER_25_36
*545 FILLER_25_47
*546 FILLER_25_55
*547 FILLER_25_57
*548 FILLER_25_65
*549 FILLER_25_83
*550 FILLER_25_95
*551 FILLER_26_102
*552 FILLER_26_114
*553 FILLER_26_126
*554 FILLER_26_138
*555 FILLER_26_141
*556 FILLER_26_145
*557 FILLER_26_15
*558 FILLER_26_27
*559 FILLER_26_29
*560 FILLER_26_3
*561 FILLER_26_36
*562 FILLER_26_44
*563 FILLER_26_65
*564 FILLER_26_79
*565 FILLER_26_83
*566 FILLER_26_85
*567 FILLER_26_90
*568 FILLER_27_111
*569 FILLER_27_113
*570 FILLER_27_125
*571 FILLER_27_137
*572 FILLER_27_145
*573 FILLER_27_15
*574 FILLER_27_27
*575 FILLER_27_3
*576 FILLER_27_44
*577 FILLER_27_53
*578 FILLER_27_57
*579 FILLER_27_75
*580 FILLER_27_87
*581 FILLER_27_99
*582 FILLER_28_109
*583 FILLER_28_121
*584 FILLER_28_133
*585 FILLER_28_139
*586 FILLER_28_141
*587 FILLER_28_145
*588 FILLER_28_15
*589 FILLER_28_27
*590 FILLER_28_29
*591 FILLER_28_3
*592 FILLER_28_41
*593 FILLER_28_47
*594 FILLER_28_55
*595 FILLER_28_63
*596 FILLER_28_82
*597 FILLER_28_85
*598 FILLER_28_97
*599 FILLER_29_101
*600 FILLER_29_109
*601 FILLER_29_113
*602 FILLER_29_125
*603 FILLER_29_137
*604 FILLER_29_145
*605 FILLER_29_15
*606 FILLER_29_27
*607 FILLER_29_3
*608 FILLER_29_39
*609 FILLER_29_51
*610 FILLER_29_55
*611 FILLER_29_57
*612 FILLER_29_65
*613 FILLER_29_77
*614 FILLER_29_89
*615 FILLER_2_109
*616 FILLER_2_121
*617 FILLER_2_133
*618 FILLER_2_138
*619 FILLER_2_141
*620 FILLER_2_145
*621 FILLER_2_21
*622 FILLER_2_27
*623 FILLER_2_29
*624 FILLER_2_3
*625 FILLER_2_41
*626 FILLER_2_61
*627 FILLER_2_81
*628 FILLER_2_85
*629 FILLER_2_9
*630 FILLER_2_97
*631 FILLER_30_109
*632 FILLER_30_121
*633 FILLER_30_133
*634 FILLER_30_139
*635 FILLER_30_141
*636 FILLER_30_145
*637 FILLER_30_15
*638 FILLER_30_27
*639 FILLER_30_29
*640 FILLER_30_3
*641 FILLER_30_41
*642 FILLER_30_63
*643 FILLER_30_75
*644 FILLER_30_83
*645 FILLER_30_85
*646 FILLER_30_97
*647 FILLER_31_108
*648 FILLER_31_113
*649 FILLER_31_125
*650 FILLER_31_137
*651 FILLER_31_145
*652 FILLER_31_15
*653 FILLER_31_27
*654 FILLER_31_3
*655 FILLER_31_35
*656 FILLER_31_54
*657 FILLER_31_57
*658 FILLER_31_65
*659 FILLER_31_84
*660 FILLER_31_96
*661 FILLER_32_109
*662 FILLER_32_121
*663 FILLER_32_133
*664 FILLER_32_139
*665 FILLER_32_141
*666 FILLER_32_145
*667 FILLER_32_26
*668 FILLER_32_29
*669 FILLER_32_3
*670 FILLER_32_35
*671 FILLER_32_42
*672 FILLER_32_62
*673 FILLER_32_82
*674 FILLER_32_85
*675 FILLER_32_9
*676 FILLER_32_97
*677 FILLER_33_108
*678 FILLER_33_113
*679 FILLER_33_125
*680 FILLER_33_137
*681 FILLER_33_145
*682 FILLER_33_15
*683 FILLER_33_3
*684 FILLER_33_34
*685 FILLER_33_54
*686 FILLER_33_57
*687 FILLER_33_64
*688 FILLER_33_84
*689 FILLER_33_96
*690 FILLER_34_109
*691 FILLER_34_121
*692 FILLER_34_133
*693 FILLER_34_139
*694 FILLER_34_141
*695 FILLER_34_145
*696 FILLER_34_15
*697 FILLER_34_26
*698 FILLER_34_29
*699 FILLER_34_3
*700 FILLER_34_41
*701 FILLER_34_45
*702 FILLER_34_62
*703 FILLER_34_82
*704 FILLER_34_85
*705 FILLER_34_97
*706 FILLER_35_105
*707 FILLER_35_111
*708 FILLER_35_113
*709 FILLER_35_125
*710 FILLER_35_137
*711 FILLER_35_145
*712 FILLER_35_15
*713 FILLER_35_27
*714 FILLER_35_3
*715 FILLER_35_31
*716 FILLER_35_48
*717 FILLER_35_57
*718 FILLER_35_69
*719 FILLER_35_81
*720 FILLER_35_93
*721 FILLER_36_109
*722 FILLER_36_121
*723 FILLER_36_133
*724 FILLER_36_139
*725 FILLER_36_141
*726 FILLER_36_145
*727 FILLER_36_15
*728 FILLER_36_27
*729 FILLER_36_29
*730 FILLER_36_3
*731 FILLER_36_47
*732 FILLER_36_59
*733 FILLER_36_71
*734 FILLER_36_83
*735 FILLER_36_85
*736 FILLER_36_97
*737 FILLER_37_105
*738 FILLER_37_111
*739 FILLER_37_113
*740 FILLER_37_125
*741 FILLER_37_137
*742 FILLER_37_145
*743 FILLER_37_15
*744 FILLER_37_27
*745 FILLER_37_3
*746 FILLER_37_39
*747 FILLER_37_51
*748 FILLER_37_55
*749 FILLER_37_57
*750 FILLER_37_69
*751 FILLER_37_81
*752 FILLER_37_93
*753 FILLER_38_109
*754 FILLER_38_121
*755 FILLER_38_133
*756 FILLER_38_139
*757 FILLER_38_141
*758 FILLER_38_145
*759 FILLER_38_15
*760 FILLER_38_27
*761 FILLER_38_29
*762 FILLER_38_3
*763 FILLER_38_41
*764 FILLER_38_53
*765 FILLER_38_65
*766 FILLER_38_77
*767 FILLER_38_83
*768 FILLER_38_85
*769 FILLER_38_97
*770 FILLER_39_105
*771 FILLER_39_111
*772 FILLER_39_113
*773 FILLER_39_125
*774 FILLER_39_137
*775 FILLER_39_144
*776 FILLER_39_15
*777 FILLER_39_27
*778 FILLER_39_3
*779 FILLER_39_39
*780 FILLER_39_51
*781 FILLER_39_55
*782 FILLER_39_57
*783 FILLER_39_69
*784 FILLER_39_81
*785 FILLER_39_93
*786 FILLER_3_110
*787 FILLER_3_113
*788 FILLER_3_125
*789 FILLER_3_137
*790 FILLER_3_145
*791 FILLER_3_15
*792 FILLER_3_27
*793 FILLER_3_3
*794 FILLER_3_47
*795 FILLER_3_54
*796 FILLER_3_57
*797 FILLER_3_63
*798 FILLER_3_73
*799 FILLER_3_86
*800 FILLER_3_98
*801 FILLER_40_109
*802 FILLER_40_12
*803 FILLER_40_121
*804 FILLER_40_133
*805 FILLER_40_138
*806 FILLER_40_141
*807 FILLER_40_145
*808 FILLER_40_24
*809 FILLER_40_29
*810 FILLER_40_3
*811 FILLER_40_41
*812 FILLER_40_53
*813 FILLER_40_65
*814 FILLER_40_7
*815 FILLER_40_77
*816 FILLER_40_83
*817 FILLER_40_85
*818 FILLER_40_97
*819 FILLER_41_10
*820 FILLER_41_105
*821 FILLER_41_111
*822 FILLER_41_113
*823 FILLER_41_121
*824 FILLER_41_126
*825 FILLER_41_134
*826 FILLER_41_142
*827 FILLER_41_18
*828 FILLER_41_3
*829 FILLER_41_30
*830 FILLER_41_42
*831 FILLER_41_54
*832 FILLER_41_57
*833 FILLER_41_69
*834 FILLER_41_81
*835 FILLER_41_93
*836 FILLER_42_109
*837 FILLER_42_11
*838 FILLER_42_121
*839 FILLER_42_129
*840 FILLER_42_137
*841 FILLER_42_141
*842 FILLER_42_145
*843 FILLER_42_16
*844 FILLER_42_24
*845 FILLER_42_29
*846 FILLER_42_3
*847 FILLER_42_36
*848 FILLER_42_48
*849 FILLER_42_60
*850 FILLER_42_72
*851 FILLER_42_85
*852 FILLER_42_97
*853 FILLER_43_102
*854 FILLER_43_110
*855 FILLER_43_113
*856 FILLER_43_119
*857 FILLER_43_124
*858 FILLER_43_132
*859 FILLER_43_140
*860 FILLER_43_17
*861 FILLER_43_25
*862 FILLER_43_3
*863 FILLER_43_33
*864 FILLER_43_38
*865 FILLER_43_48
*866 FILLER_43_57
*867 FILLER_43_65
*868 FILLER_43_77
*869 FILLER_43_82
*870 FILLER_43_9
*871 FILLER_43_94
*872 FILLER_44_10
*873 FILLER_44_102
*874 FILLER_44_110
*875 FILLER_44_118
*876 FILLER_44_126
*877 FILLER_44_134
*878 FILLER_44_141
*879 FILLER_44_145
*880 FILLER_44_18
*881 FILLER_44_26
*882 FILLER_44_29
*883 FILLER_44_3
*884 FILLER_44_37
*885 FILLER_44_42
*886 FILLER_44_50
*887 FILLER_44_58
*888 FILLER_44_66
*889 FILLER_44_74
*890 FILLER_44_82
*891 FILLER_44_85
*892 FILLER_44_89
*893 FILLER_44_94
*894 FILLER_45_104
*895 FILLER_45_113
*896 FILLER_45_119
*897 FILLER_45_127
*898 FILLER_45_135
*899 FILLER_45_14
*900 FILLER_45_143
*901 FILLER_45_22
*902 FILLER_45_3
*903 FILLER_45_30
*904 FILLER_45_38
*905 FILLER_45_46
*906 FILLER_45_54
*907 FILLER_45_57
*908 FILLER_45_63
*909 FILLER_45_68
*910 FILLER_45_76
*911 FILLER_45_84
*912 FILLER_45_9
*913 FILLER_45_96
*914 FILLER_46_10
*915 FILLER_46_107
*916 FILLER_46_111
*917 FILLER_46_113
*918 FILLER_46_119
*919 FILLER_46_127
*920 FILLER_46_135
*921 FILLER_46_139
*922 FILLER_46_141
*923 FILLER_46_145
*924 FILLER_46_18
*925 FILLER_46_26
*926 FILLER_46_29
*927 FILLER_46_3
*928 FILLER_46_33
*929 FILLER_46_38
*930 FILLER_46_46
*931 FILLER_46_54
*932 FILLER_46_57
*933 FILLER_46_61
*934 FILLER_46_66
*935 FILLER_46_74
*936 FILLER_46_82
*937 FILLER_46_85
*938 FILLER_46_91
*939 FILLER_46_99
*940 FILLER_4_108
*941 FILLER_4_120
*942 FILLER_4_132
*943 FILLER_4_141
*944 FILLER_4_145
*945 FILLER_4_15
*946 FILLER_4_27
*947 FILLER_4_29
*948 FILLER_4_3
*949 FILLER_4_37
*950 FILLER_4_42
*951 FILLER_4_52
*952 FILLER_4_62
*953 FILLER_4_70
*954 FILLER_4_76
*955 FILLER_4_85
*956 FILLER_4_96
*957 FILLER_5_109
*958 FILLER_5_113
*959 FILLER_5_125
*960 FILLER_5_137
*961 FILLER_5_145
*962 FILLER_5_15
*963 FILLER_5_27
*964 FILLER_5_3
*965 FILLER_5_39
*966 FILLER_5_47
*967 FILLER_5_54
*968 FILLER_5_57
*969 FILLER_5_66
*970 FILLER_5_73
*971 FILLER_5_85
*972 FILLER_5_97
*973 FILLER_6_109
*974 FILLER_6_121
*975 FILLER_6_133
*976 FILLER_6_139
*977 FILLER_6_141
*978 FILLER_6_145
*979 FILLER_6_15
*980 FILLER_6_27
*981 FILLER_6_29
*982 FILLER_6_3
*983 FILLER_6_37
*984 FILLER_6_43
*985 FILLER_6_50
*986 FILLER_6_57
*987 FILLER_6_71
*988 FILLER_6_82
*989 FILLER_6_85
*990 FILLER_6_97
*991 FILLER_7_103
*992 FILLER_7_111
*993 FILLER_7_113
*994 FILLER_7_125
*995 FILLER_7_137
*996 FILLER_7_145
*997 FILLER_7_15
*998 FILLER_7_23
*999 FILLER_7_3
*1000 FILLER_7_30
*1001 FILLER_7_39
*1002 FILLER_7_54
*1003 FILLER_7_57
*1004 FILLER_7_77
*1005 FILLER_7_81
*1006 FILLER_7_91
*1007 FILLER_8_108
*1008 FILLER_8_120
*1009 FILLER_8_132
*1010 FILLER_8_141
*1011 FILLER_8_145
*1012 FILLER_8_15
*1013 FILLER_8_27
*1014 FILLER_8_29
*1015 FILLER_8_3
*1016 FILLER_8_35
*1017 FILLER_8_44
*1018 FILLER_8_64
*1019 FILLER_8_82
*1020 FILLER_8_85
*1021 FILLER_8_96
*1022 FILLER_9_102
*1023 FILLER_9_110
*1024 FILLER_9_113
*1025 FILLER_9_125
*1026 FILLER_9_137
*1027 FILLER_9_145
*1028 FILLER_9_15
*1029 FILLER_9_3
*1030 FILLER_9_36
*1031 FILLER_9_42
*1032 FILLER_9_49
*1033 FILLER_9_55
*1034 FILLER_9_57
*1035 FILLER_9_69
*1036 FILLER_9_77
*1037 FILLER_9_90
*1038 PHY_0
*1039 PHY_1
*1040 PHY_10
*1041 PHY_11
*1042 PHY_12
*1043 PHY_13
*1044 PHY_14
*1045 PHY_15
*1046 PHY_16
*1047 PHY_17
*1048 PHY_18
*1049 PHY_19
*1050 PHY_2
*1051 PHY_20
*1052 PHY_21
*1053 PHY_22
*1054 PHY_23
*1055 PHY_24
*1056 PHY_25
*1057 PHY_26
*1058 PHY_27
*1059 PHY_28
*1060 PHY_29
*1061 PHY_3
*1062 PHY_30
*1063 PHY_31
*1064 PHY_32
*1065 PHY_33
*1066 PHY_34
*1067 PHY_35
*1068 PHY_36
*1069 PHY_37
*1070 PHY_38
*1071 PHY_39
*1072 PHY_4
*1073 PHY_40
*1074 PHY_41
*1075 PHY_42
*1076 PHY_43
*1077 PHY_44
*1078 PHY_45
*1079 PHY_46
*1080 PHY_47
*1081 PHY_48
*1082 PHY_49
*1083 PHY_5
*1084 PHY_50
*1085 PHY_51
*1086 PHY_52
*1087 PHY_53
*1088 PHY_54
*1089 PHY_55
*1090 PHY_56
*1091 PHY_57
*1092 PHY_58
*1093 PHY_59
*1094 PHY_6
*1095 PHY_60
*1096 PHY_61
*1097 PHY_62
*1098 PHY_63
*1099 PHY_64
*1100 PHY_65
*1101 PHY_66
*1102 PHY_67
*1103 PHY_68
*1104 PHY_69
*1105 PHY_7
*1106 PHY_70
*1107 PHY_71
*1108 PHY_72
*1109 PHY_73
*1110 PHY_74
*1111 PHY_75
*1112 PHY_76
*1113 PHY_77
*1114 PHY_78
*1115 PHY_79
*1116 PHY_8
*1117 PHY_80
*1118 PHY_81
*1119 PHY_82
*1120 PHY_83
*1121 PHY_84
*1122 PHY_85
*1123 PHY_86
*1124 PHY_87
*1125 PHY_88
*1126 PHY_89
*1127 PHY_9
*1128 PHY_90
*1129 PHY_91
*1130 PHY_92
*1131 PHY_93
*1132 TAP_100
*1133 TAP_101
*1134 TAP_102
*1135 TAP_103
*1136 TAP_104
*1137 TAP_105
*1138 TAP_106
*1139 TAP_107
*1140 TAP_108
*1141 TAP_109
*1142 TAP_110
*1143 TAP_111
*1144 TAP_112
*1145 TAP_113
*1146 TAP_114
*1147 TAP_115
*1148 TAP_116
*1149 TAP_117
*1150 TAP_118
*1151 TAP_119
*1152 TAP_120
*1153 TAP_121
*1154 TAP_122
*1155 TAP_123
*1156 TAP_124
*1157 TAP_125
*1158 TAP_126
*1159 TAP_127
*1160 TAP_128
*1161 TAP_129
*1162 TAP_130
*1163 TAP_131
*1164 TAP_132
*1165 TAP_133
*1166 TAP_134
*1167 TAP_135
*1168 TAP_136
*1169 TAP_137
*1170 TAP_138
*1171 TAP_139
*1172 TAP_140
*1173 TAP_141
*1174 TAP_142
*1175 TAP_143
*1176 TAP_144
*1177 TAP_145
*1178 TAP_146
*1179 TAP_147
*1180 TAP_148
*1181 TAP_149
*1182 TAP_150
*1183 TAP_151
*1184 TAP_152
*1185 TAP_153
*1186 TAP_154
*1187 TAP_155
*1188 TAP_156
*1189 TAP_157
*1190 TAP_158
*1191 TAP_159
*1192 TAP_160
*1193 TAP_161
*1194 TAP_162
*1195 TAP_163
*1196 TAP_164
*1197 TAP_165
*1198 TAP_166
*1199 TAP_167
*1200 TAP_168
*1201 TAP_169
*1202 TAP_170
*1203 TAP_171
*1204 TAP_172
*1205 TAP_173
*1206 TAP_174
*1207 TAP_175
*1208 TAP_176
*1209 TAP_177
*1210 TAP_178
*1211 TAP_179
*1212 TAP_180
*1213 TAP_181
*1214 TAP_182
*1215 TAP_183
*1216 TAP_184
*1217 TAP_185
*1218 TAP_186
*1219 TAP_187
*1220 TAP_188
*1221 TAP_189
*1222 TAP_190
*1223 TAP_191
*1224 TAP_192
*1225 TAP_193
*1226 TAP_194
*1227 TAP_195
*1228 TAP_196
*1229 TAP_197
*1230 TAP_198
*1231 TAP_199
*1232 TAP_200
*1233 TAP_201
*1234 TAP_202
*1235 TAP_203
*1236 TAP_204
*1237 TAP_205
*1238 TAP_206
*1239 TAP_207
*1240 TAP_208
*1241 TAP_209
*1242 TAP_210
*1243 TAP_211
*1244 TAP_212
*1245 TAP_213
*1246 TAP_214
*1247 TAP_215
*1248 TAP_94
*1249 TAP_95
*1250 TAP_96
*1251 TAP_97
*1252 TAP_98
*1253 TAP_99
*1254 _093_
*1255 _094_
*1256 _095_
*1257 _096_
*1258 _097_
*1259 _098_
*1260 _099_
*1261 _100_
*1262 _101_
*1263 _102_
*1264 _103_
*1265 _104_
*1266 _105_
*1267 _106_
*1268 _107_
*1269 _108_
*1270 _109_
*1271 _110_
*1272 _111_
*1273 _112_
*1274 _113_
*1275 _114_
*1276 _115_
*1277 _116_
*1278 _117_
*1279 _118_
*1280 _119_
*1281 _120_
*1282 _121_
*1283 _122_
*1284 _123_
*1285 _124_
*1286 _125_
*1287 _126_
*1288 _127_
*1289 _128_
*1290 _129_
*1291 _130_
*1292 _131_
*1293 _132_
*1294 _133_
*1295 _134_
*1296 _135_
*1297 _136_
*1298 _137_
*1299 _138_
*1300 _139_
*1301 _140_
*1302 _141_
*1303 _142_
*1304 _143_
*1305 _144_
*1306 _145_
*1307 _146_
*1308 _147_
*1309 _148_
*1310 _149_
*1311 _150_
*1312 _151_
*1313 _152_
*1314 _153_
*1315 _154_
*1316 _155_
*1317 _156_
*1318 _157_
*1319 _158_
*1320 _159_
*1321 _160_
*1322 _161_
*1323 _162_
*1324 _163_
*1325 _164_
*1326 _165_
*1327 _166_
*1328 _167_
*1329 _168_
*1330 _169_
*1331 _170_
*1332 _171_
*1333 _172_
*1334 _173_
*1335 _174_
*1336 _175_
*1337 _176_
*1338 _177_
*1339 _178_
*1340 _179_
*1341 _180_
*1342 _181_
*1343 _182_
*1344 _183_
*1345 _184_
*1346 _185_
*1347 _186_
*1348 _187_
*1349 _188_
*1350 _189_
*1351 _190_
*1352 _191_
*1353 _192_
*1354 _193_
*1355 _194_
*1356 _195_
*1357 _196_
*1358 _197_
*1359 _198_
*1360 _199_
*1361 _200_
*1362 _201_
*1363 _202_
*1364 _203_
*1365 _204_
*1366 _205_
*1367 _206_
*1368 _207_
*1369 _208_
*1370 _209_
*1371 _210_
*1372 _211_
*1373 _212_
*1374 _213_
*1375 _214_
*1376 _215_
*1377 _216_
*1378 _217_
*1379 _218_
*1380 _219_
*1381 _220_
*1382 _221_
*1383 _222_
*1384 _223_
*1385 _224_
*1386 _225_
*1387 _226_
*1388 _227_
*1389 _228_
*1390 _229_
*1391 _230_
*1392 _231_
*1393 _232_
*1394 _233_
*1395 _234_
*1396 _235_
*1397 _236_
*1398 _237_
*1399 _238_
*1400 _239_
*1401 _240_
*1402 _241_
*1403 clkbuf_0_clk
*1404 clkbuf_2_0__f_clk
*1405 clkbuf_2_1__f_clk
*1406 clkbuf_2_2__f_clk
*1407 clkbuf_2_3__f_clk
*1408 input1
*1409 input10
*1410 input11
*1411 input12
*1412 input13
*1413 input2
*1414 input3
*1415 input4
*1416 input5
*1417 input6
*1418 input7
*1419 input8
*1420 input9
*1421 output14
*1422 output15
*1423 output16
*1424 output17
*1425 output18
*1426 output19
*1427 output20
*1428 output21
*1429 output22
*1430 output23
*1431 output24
*1432 output25
*1433 output26
*1434 output27
*1435 output28
*1436 output29
*1437 output30
*1438 output31
*1439 output32
*1440 output33
*1441 output34
*1442 output35
*1443 output36
*1444 output37
*1445 output38
*1446 output39
*1447 output40
*1448 output41
*1449 output42
*1450 output43
*1451 output44
*1452 output45
*1453 output46
*1454 output47
*1455 output48
*1456 output49
*1457 output50
*1458 output51
*1459 output52
*1460 output53
*1461 output54
*1462 output55
*1463 output56
*1464 output57
*1465 output58
*1466 output59

*PORTS
clk I
dac_in[0] I
dac_in[1] I
dac_in[2] I
dac_in[3] I
dac_in[4] I
dac_in[5] I
dac_in[6] I
dac_in[7] I
dac_in[8] I
dac_in[9] I
dummy I
llsb O
llsb_n O
lsb[0] O
lsb[1] O
lsb[2] O
lsb[3] O
lsb[4] O
lsb[5] O
lsb_n[0] O
lsb_n[1] O
lsb_n[2] O
lsb_n[3] O
lsb_n[4] O
lsb_n[5] O
msb[0] O
msb[10] O
msb[11] O
msb[12] O
msb[13] O
msb[14] O
msb[15] O
msb[1] O
msb[2] O
msb[3] O
msb[4] O
msb[5] O
msb[6] O
msb[7] O
msb[8] O
msb[9] O
msb_n[0] O
msb_n[10] O
msb_n[11] O
msb_n[12] O
msb_n[13] O
msb_n[14] O
msb_n[15] O
msb_n[1] O
msb_n[2] O
msb_n[3] O
msb_n[4] O
msb_n[5] O
msb_n[6] O
msb_n[7] O
msb_n[8] O
msb_n[9] O
rst_n I
test_mode I

*D_NET *1 0.0106328
*CONN
*P clk I
*I *231:DIODE I *D sky130_fd_sc_hd__diode_2
*I *1403:A I *D sky130_fd_sc_hd__clkbuf_16
*CAP
1 clk 0.0014935
2 *231:DIODE 0.000347893
3 *1403:A 0
4 *1:15 0.00107133
5 *1:14 0.00221694
6 *231:DIODE *1362:A1 0.000136284
7 *231:DIODE *96:33 4.66108e-05
8 *231:DIODE *96:43 8.34281e-06
9 *231:DIODE *156:8 0.000101822
10 *231:DIODE *156:34 8.59365e-05
11 *231:DIODE *157:53 0.000100308
12 *1:14 *232:DIODE 5.947e-05
13 *1:14 *1340:A0 3.37462e-05
14 *1:14 *141:8 4.82863e-05
15 *1:14 *166:11 8.57024e-05
16 *1:15 *1298:B1 0.000212505
17 *1:15 *1299:A 3.39944e-05
18 *1:15 *1303:D 5.03144e-05
19 *1:15 *1305:A2 4.37568e-05
20 *1:15 *1311:B 0.000624109
21 *1:15 *1316:A1 9.54399e-05
22 *1:15 *1346:A1 9.07086e-05
23 *1:15 *1375:D 0.000249921
24 *1:15 *1404:A 0.000120302
25 *1:15 *100:11 0.000252282
26 *1:15 *115:10 0.000316806
27 *1:15 *118:8 0.000829472
28 *1:15 *156:8 0.00140619
29 *1:15 *157:53 0.000261954
30 *1:15 *165:6 0
31 *1:15 *170:18 0.000208833
*RES
1 clk *1:14 24.775 
2 *1:14 *1:15 31.725 
3 *1:15 *1403:A 3.6 
4 *1:15 *231:DIODE 10.335 
*END

*D_NET *2 0.00165468
*CONN
*P dac_in[0] I
*I *236:DIODE I *D sky130_fd_sc_hd__diode_2
*I *1408:A I *D sky130_fd_sc_hd__clkbuf_1
*CAP
1 dac_in[0] 0.000499489
2 *236:DIODE 0.000178691
3 *1408:A 5.05305e-05
4 *2:5 0.000728711
5 *236:DIODE *1317:B 0
6 *236:DIODE *1322:A0 7.23533e-05
7 *1408:A *12:8 0.0001249
*RES
1 dac_in[0] *2:5 8.595 
2 *2:5 *1408:A 4.74 
3 *2:5 *236:DIODE 6.12 
*END

*D_NET *3 0.00112353
*CONN
*P dac_in[1] I
*I *237:DIODE I *D sky130_fd_sc_hd__diode_2
*I *1413:A I *D sky130_fd_sc_hd__clkbuf_1
*CAP
1 dac_in[1] 0.000434439
2 *237:DIODE 0.000118442
3 *1413:A 0
4 *3:8 0.000552881
5 *3:8 *1325:A0 1.77665e-05
*RES
1 dac_in[1] *3:8 9.44 
2 *3:8 *1413:A 1.6 
3 *3:8 *237:DIODE 3.43 
*END

*D_NET *4 0.00109388
*CONN
*P dac_in[2] I
*I *238:DIODE I *D sky130_fd_sc_hd__diode_2
*I *1414:A I *D sky130_fd_sc_hd__clkbuf_1
*CAP
1 dac_in[2] 0.000359372
2 *238:DIODE 0.000106978
3 *1414:A 7.13954e-05
4 *4:5 0.000537746
5 *238:DIODE *1325:A0 0
6 *238:DIODE *1328:A0 0
7 *1414:A *1328:A0 1.83847e-05
*RES
1 dac_in[2] *4:5 6.3 
2 *4:5 *1414:A 4.74 
3 *4:5 *238:DIODE 5.235 
*END

*D_NET *5 0.00112568
*CONN
*P dac_in[3] I
*I *239:DIODE I *D sky130_fd_sc_hd__diode_2
*I *1415:A I *D sky130_fd_sc_hd__clkbuf_1
*CAP
1 dac_in[3] 0.000359372
2 *239:DIODE 8.66546e-05
3 *1415:A 7.73382e-05
4 *5:5 0.000523365
5 *239:DIODE *1331:A0 7.4027e-05
6 *1415:A *1328:A0 4.9253e-06
*RES
1 dac_in[3] *5:5 6.3 
2 *5:5 *1415:A 4.74 
3 *5:5 *239:DIODE 5.235 
*END

*D_NET *6 0.00117243
*CONN
*P dac_in[4] I
*I *1416:A I *D sky130_fd_sc_hd__clkbuf_1
*I *240:DIODE I *D sky130_fd_sc_hd__diode_2
*CAP
1 dac_in[4] 0.00033726
2 *1416:A 9.57599e-05
3 *240:DIODE 0.000135642
4 *6:7 0.000568662
5 *1416:A *1334:A0 3.51072e-05
*RES
1 dac_in[4] *6:7 7.79 
2 *6:7 *240:DIODE 3.085 
3 *6:7 *1416:A 3.355 
*END

*D_NET *7 0.0011831
*CONN
*P dac_in[5] I
*I *241:DIODE I *D sky130_fd_sc_hd__diode_2
*I *1417:A I *D sky130_fd_sc_hd__clkbuf_1
*CAP
1 dac_in[5] 0.000359372
2 *241:DIODE 0.000161417
3 *1417:A 3.37454e-05
4 *7:5 0.000554534
5 *241:DIODE *1337:A0 7.4027e-05
*RES
1 dac_in[5] *7:5 6.3 
2 *7:5 *1417:A 4.05 
3 *7:5 *241:DIODE 6.03 
*END

*D_NET *8 0.00170429
*CONN
*P dac_in[6] I
*I *242:DIODE I *D sky130_fd_sc_hd__diode_2
*I *1418:A I *D sky130_fd_sc_hd__clkbuf_1
*CAP
1 dac_in[6] 0.000358065
2 *242:DIODE 0.000247052
3 *1418:A 7.13954e-05
4 *8:5 0.000676512
5 *242:DIODE *1302:A 1.08721e-05
6 *242:DIODE *1337:A0 0.000156068
7 *242:DIODE *1344:A0 0.000115197
8 *242:DIODE *127:24 4.77757e-05
9 *1418:A *1343:A0 1.83847e-05
10 *8:5 *1302:A 2.97004e-06
*RES
1 dac_in[6] *8:5 6.3 
2 *8:5 *1418:A 4.74 
3 *8:5 *242:DIODE 8.355 
*END

*D_NET *9 0.00258857
*CONN
*P dac_in[7] I
*I *1419:A I *D sky130_fd_sc_hd__clkbuf_1
*I *243:DIODE I *D sky130_fd_sc_hd__diode_2
*CAP
1 dac_in[7] 0.000441934
2 *1419:A 0
3 *243:DIODE 0.000642612
4 *9:8 0.00108455
5 *243:DIODE *244:DIODE 0.000119866
6 *243:DIODE *1375:CLK 2.93517e-05
7 *243:DIODE *1375:D 7.20071e-05
8 *243:DIODE *1376:D 0
9 *243:DIODE *10:10 0
10 *9:8 *127:11 0.000198252
*RES
1 dac_in[7] *9:8 10.13 
2 *9:8 *243:DIODE 13.55 
3 *9:8 *1419:A 1.6 
*END

*D_NET *10 0.00219253
*CONN
*P dac_in[8] I
*I *1420:A I *D sky130_fd_sc_hd__clkbuf_1
*I *244:DIODE I *D sky130_fd_sc_hd__diode_2
*CAP
1 dac_in[8] 0.000463452
2 *1420:A 0
3 *244:DIODE 0.000230779
4 *10:10 0.000694231
5 *244:DIODE *1320:A 8.15593e-05
6 *244:DIODE *1346:A0 1.09383e-05
7 *244:DIODE *1375:CLK 8.7846e-05
8 *244:DIODE *174:10 3.75147e-05
9 *244:DIODE *175:7 6.66464e-05
10 *10:10 *1320:A 0.000276898
11 *10:10 *174:10 0.000122801
12 *243:DIODE *244:DIODE 0.000119866
13 *243:DIODE *10:10 0
*RES
1 dac_in[8] *10:10 11.27 
2 *10:10 *244:DIODE 10.7 
3 *10:10 *1420:A 1.6 
*END

*D_NET *11 0.0017375
*CONN
*P dac_in[9] I
*I *1409:A I *D sky130_fd_sc_hd__clkbuf_1
*I *232:DIODE I *D sky130_fd_sc_hd__diode_2
*CAP
1 dac_in[9] 0.000488574
2 *1409:A 0
3 *232:DIODE 0.000160779
4 *11:8 0.000649353
5 *232:DIODE *1340:A0 0
6 *232:DIODE *175:7 9.18292e-06
7 *11:8 *1320:A 1.70935e-05
8 *11:8 *174:10 0.000353049
9 *1:14 *232:DIODE 5.947e-05
*RES
1 dac_in[9] *11:8 11.51 
2 *11:8 *232:DIODE 8.03 
3 *11:8 *1409:A 1.6 
*END

*D_NET *12 0.00213491
*CONN
*P dummy I
*I *1410:A I *D sky130_fd_sc_hd__clkbuf_1
*I *233:DIODE I *D sky130_fd_sc_hd__diode_2
*CAP
1 dummy 0.000806044
2 *1410:A 2.08101e-05
3 *233:DIODE 0.000178151
4 *12:8 0.001005
5 *1408:A *12:8 0.0001249
*RES
1 dummy *12:8 15.965 
2 *12:8 *233:DIODE 4.12 
3 *12:8 *1410:A 1.96 
*END

*D_NET *13 0.00393034
*CONN
*P llsb O
*I *1421:X O *D sky130_fd_sc_hd__buf_2
*CAP
1 llsb 0.00133354
2 *1421:X 0.00133354
3 llsb llsb_n 0.000504248
4 llsb *1271:A 0.000712395
5 llsb *1429:A 4.66108e-05
*RES
1 *1421:X llsb 28.875 
*END

*D_NET *14 0.00305354
*CONN
*P llsb_n O
*I *1422:X O *D sky130_fd_sc_hd__buf_2
*CAP
1 llsb_n 0.000755394
2 *1422:X 0.000755394
3 llsb_n lsb[0] 0.000505538
4 llsb_n *1422:A 0.000252282
5 llsb_n *1429:A 0.00028068
6 llsb llsb_n 0.000504248
*RES
1 *1422:X llsb_n 25.32 
*END

*D_NET *15 0.00350992