* NGSPICE file created from sarcon_sync_flat.ext - technology: sky130A

.subckt sarcon_sync_flat clk comp dq[0] dq[1] dq[2] dq[3] dq[4] dq[5] dq[6] dq[7]
+ last_cycle rst_n valid vssd1 vccd1
X0 a_7768_3311# a_7369_3311# a_7642_3677# vssd1 sky130_fd_pr__nfet_01v8 ad=0p pd=0u as=0p ps=0u w=360000u l=150000u
X1 a_10769_2223# a_9779_2223# a_10643_2589# vssd1 sky130_fd_pr__nfet_01v8 ad=0p pd=0u as=0p ps=0u w=360000u l=150000u
X2 a_2673_2741# clknet_0_clk vccd1 vccd1 sky130_fd_pr__pfet_01v8_hvt ad=0p pd=0u as=1.2305e+14p ps=1.17422e+09u w=1e+06u l=150000u
X3 vccd1 a_6700_5175# _25_ vccd1 sky130_fd_pr__pfet_01v8_hvt ad=0p pd=0u as=0p ps=0u w=1e+06u l=150000u
X4 vccd1 a_10011_4551# sr\[4\] vccd1 sky130_fd_pr__pfet_01v8_hvt ad=0p pd=0u as=0p ps=0u w=1e+06u l=150000u
X5 vccd1 a_12575_3855# a_12743_3829# vccd1 sky130_fd_pr__pfet_01v8_hvt ad=0p pd=0u as=0p ps=0u w=1e+06u l=150000u
X6 vccd1 a_9187_5175# _06_ vccd1 sky130_fd_pr__pfet_01v8_hvt ad=0p pd=0u as=0p ps=0u w=1e+06u l=150000u
X7 vssd1 a_5234_2335# a_5192_2223# vssd1 sky130_fd_pr__nfet_01v8 ad=7.69862e+13p pd=8.46e+08u as=0p ps=0u w=420000u l=150000u
X8 vccd1 vssd1 vccd1 vccd1 sky130_fd_pr__pfet_01v8_hvt ad=0p pd=0u as=0p ps=0u w=870000u l=1.05e+06u
X9 vccd1 vssd1 vccd1 vccd1 sky130_fd_pr__pfet_01v8_hvt ad=0p pd=0u as=0p ps=0u w=870000u l=1.05e+06u
X10 vccd1 vssd1 vccd1 vccd1 sky130_fd_pr__pfet_01v8_hvt ad=0p pd=0u as=0p ps=0u w=870000u l=2.89e+06u
X11 vssd1 vccd1 vssd1 vssd1 sky130_fd_pr__nfet_01v8 ad=0p pd=0u as=0p ps=0u w=550000u l=590000u
X12 vccd1 clknet_1_0__leaf_clk a_6743_4399# vccd1 sky130_fd_pr__pfet_01v8_hvt ad=0p pd=0u as=0p ps=0u w=640000u l=150000u
X13 vssd1 a_7810_3423# a_7768_3311# vssd1 sky130_fd_pr__nfet_01v8 ad=0p pd=0u as=0p ps=0u w=420000u l=150000u
X14 vccd1 a_12835_3579# a_12751_3677# vccd1 sky130_fd_pr__pfet_01v8_hvt ad=0p pd=0u as=0p ps=0u w=420000u l=150000u
X15 vccd1 vssd1 vccd1 vccd1 sky130_fd_pr__pfet_01v8_hvt ad=0p pd=0u as=0p ps=0u w=870000u l=4.73e+06u
X16 vccd1 vssd1 vccd1 vccd1 sky130_fd_pr__pfet_01v8_hvt ad=0p pd=0u as=0p ps=0u w=870000u l=2.89e+06u
X17 a_12410_3423# a_12242_3677# vccd1 vccd1 sky130_fd_pr__pfet_01v8_hvt ad=0p pd=0u as=0p ps=0u w=750000u l=150000u
X18 vssd1 vccd1 vssd1 vssd1 sky130_fd_pr__nfet_01v8 ad=0p pd=0u as=0p ps=0u w=550000u l=4.73e+06u
X19 vccd1 a_2651_4087# sr\[3\] vccd1 sky130_fd_pr__pfet_01v8_hvt ad=0p pd=0u as=0p ps=0u w=1e+06u l=150000u
X20 a_4847_3677# a_3983_3311# a_4590_3423# vccd1 sky130_fd_pr__pfet_01v8_hvt ad=0p pd=0u as=0p ps=0u w=420000u l=150000u
X21 vssd1 a_7838_2767# clknet_0_clk vssd1 sky130_fd_pr__nfet_01v8 ad=0p pd=0u as=0p ps=0u w=420000u l=150000u
X22 vccd1 vssd1 vccd1 vccd1 sky130_fd_pr__pfet_01v8_hvt ad=0p pd=0u as=0p ps=0u w=870000u l=1.05e+06u
X23 vssd1 vccd1 vssd1 vssd1 sky130_fd_pr__nfet_01v8 ad=0p pd=0u as=0p ps=0u w=550000u l=2.89e+06u
X24 a_5013_3855# a_4675_4087# vccd1 vccd1 sky130_fd_pr__pfet_01v8_hvt ad=0p pd=0u as=0p ps=0u w=420000u l=150000u
X25 vssd1 a_2099_2375# net3 vssd1 sky130_fd_pr__nfet_01v8 ad=0p pd=0u as=0p ps=0u w=650000u l=150000u
X26 a_10133_2223# _02_ vccd1 vccd1 sky130_fd_pr__pfet_01v8_hvt ad=0p pd=0u as=0p ps=0u w=420000u l=150000u
X27 vccd1 vssd1 vccd1 vccd1 sky130_fd_pr__pfet_01v8_hvt ad=0p pd=0u as=0p ps=0u w=870000u l=1.97e+06u
X28 a_12741_5461# sr\[4\] vssd1 vssd1 sky130_fd_pr__nfet_01v8 ad=0p pd=0u as=0p ps=0u w=420000u l=150000u
X29 clknet_1_1__leaf_clk a_7930_3855# vssd1 vssd1 sky130_fd_pr__nfet_01v8 ad=0p pd=0u as=0p ps=0u w=420000u l=150000u
X30 vccd1 a_8235_3579# a_8151_3677# vccd1 sky130_fd_pr__pfet_01v8_hvt ad=0p pd=0u as=0p ps=0u w=420000u l=150000u
X31 a_13503_5309# net10 a_13140_5175# vssd1 sky130_fd_pr__nfet_01v8 ad=0p pd=0u as=0p ps=0u w=420000u l=150000u
X32 vssd1 vccd1 vssd1 vssd1 sky130_fd_pr__nfet_01v8 ad=0p pd=0u as=0p ps=0u w=550000u l=590000u
X33 a_9920_5639# net7 a_10062_5814# vccd1 sky130_fd_pr__pfet_01v8_hvt ad=0p pd=0u as=0p ps=0u w=420000u l=150000u
X34 vccd1 vssd1 vccd1 vccd1 sky130_fd_pr__pfet_01v8_hvt ad=0p pd=0u as=0p ps=0u w=870000u l=4.73e+06u
X35 vccd1 vssd1 vccd1 vccd1 sky130_fd_pr__pfet_01v8_hvt ad=0p pd=0u as=0p ps=0u w=870000u l=1.05e+06u
X36 a_2939_5175# net2 vccd1 vccd1 sky130_fd_pr__pfet_01v8_hvt ad=0p pd=0u as=0p ps=0u w=420000u l=150000u
X37 vccd1 a_7930_3855# clknet_1_1__leaf_clk vccd1 sky130_fd_pr__pfet_01v8_hvt ad=0p pd=0u as=0p ps=0u w=1e+06u l=150000u
X38 vccd1 clknet_1_1__leaf_clk a_9779_3311# vccd1 sky130_fd_pr__pfet_01v8_hvt ad=0p pd=0u as=0p ps=0u w=640000u l=150000u
X39 a_7155_5487# net6 a_6792_5639# vssd1 sky130_fd_pr__nfet_01v8 ad=0p pd=0u as=0p ps=0u w=420000u l=150000u
X40 vssd1 a_10811_2491# a_10769_2223# vssd1 sky130_fd_pr__nfet_01v8 ad=0p pd=0u as=0p ps=0u w=420000u l=150000u
X41 vccd1 vssd1 vccd1 vccd1 sky130_fd_pr__pfet_01v8_hvt ad=0p pd=0u as=0p ps=0u w=870000u l=4.73e+06u
X42 a_6934_5487# sr\[2\] vssd1 vssd1 sky130_fd_pr__nfet_01v8 ad=0p pd=0u as=0p ps=0u w=420000u l=150000u
X43 a_4793_2223# a_4627_2223# vccd1 vccd1 sky130_fd_pr__pfet_01v8_hvt ad=0p pd=0u as=0p ps=0u w=640000u l=150000u
X44 vccd1 _10_ a_3033_2223# vccd1 sky130_fd_pr__pfet_01v8_hvt ad=0p pd=0u as=0p ps=0u w=420000u l=150000u
X45 clknet_0_clk a_7838_2767# vssd1 vssd1 sky130_fd_pr__nfet_01v8 ad=0p pd=0u as=0p ps=0u w=420000u l=150000u
X46 vccd1 a_16911_2986# _01_ vccd1 sky130_fd_pr__pfet_01v8_hvt ad=0p pd=0u as=0p ps=0u w=790000u l=150000u
X47 a_10062_5814# sr\[3\] vccd1 vccd1 sky130_fd_pr__pfet_01v8_hvt ad=0p pd=0u as=0p ps=0u w=420000u l=150000u
X48 vccd1 clknet_1_0__leaf_clk a_2051_4399# vccd1 sky130_fd_pr__pfet_01v8_hvt ad=0p pd=0u as=0p ps=0u w=640000u l=150000u
X49 a_7557_3311# _06_ vssd1 vssd1 sky130_fd_pr__nfet_01v8 ad=0p pd=0u as=0p ps=0u w=420000u l=150000u
X50 vccd1 clknet_1_1__leaf_clk a_11803_3311# vccd1 sky130_fd_pr__pfet_01v8_hvt ad=0p pd=0u as=0p ps=0u w=640000u l=150000u
X51 vccd1 a_6792_5639# _24_ vccd1 sky130_fd_pr__pfet_01v8_hvt ad=0p pd=0u as=0p ps=0u w=1e+06u l=150000u
X52 a_4590_3423# a_4422_3677# vccd1 vccd1 sky130_fd_pr__pfet_01v8_hvt ad=0p pd=0u as=0p ps=0u w=750000u l=150000u
X53 vssd1 a_10011_4551# sr\[4\] vssd1 sky130_fd_pr__nfet_01v8 ad=0p pd=0u as=0p ps=0u w=650000u l=150000u
X54 a_5055_4073# clknet_1_0__leaf_clk vssd1 vssd1 sky130_fd_pr__nfet_01v8 ad=0p pd=0u as=0p ps=0u w=420000u l=150000u
X55 vssd1 vccd1 vssd1 vssd1 sky130_fd_pr__nfet_01v8 ad=0p pd=0u as=0p ps=0u w=550000u l=1.05e+06u
X56 vccd1 sr\[1\] a_4043_4551# vccd1 sky130_fd_pr__pfet_01v8_hvt ad=0p pd=0u as=0p ps=0u w=420000u l=150000u
X57 vccd1 a_11855_4373# _03_ vccd1 sky130_fd_pr__pfet_01v8_hvt ad=0p pd=0u as=0p ps=0u w=1e+06u l=150000u
X58 vccd1 a_11943_2375# sr_dly\[0\] vccd1 sky130_fd_pr__pfet_01v8_hvt ad=0p pd=0u as=0p ps=0u w=1e+06u l=150000u
X59 a_12039_2197# a_12330_2497# a_12281_2589# vccd1 sky130_fd_pr__pfet_01v8_hvt ad=0p pd=0u as=0p ps=0u w=420000u l=150000u
X60 vccd1 a_7838_2767# clknet_0_clk vccd1 sky130_fd_pr__pfet_01v8_hvt ad=0p pd=0u as=0p ps=0u w=1e+06u l=150000u
X61 vssd1 vccd1 vssd1 vssd1 sky130_fd_pr__nfet_01v8 ad=0p pd=0u as=0p ps=0u w=550000u l=1.05e+06u
X62 vssd1 vccd1 vssd1 vssd1 sky130_fd_pr__nfet_01v8 ad=0p pd=0u as=0p ps=0u w=550000u l=2.89e+06u
X63 a_7197_4175# net11 vssd1 vssd1 sky130_fd_pr__nfet_01v8 ad=0p pd=0u as=0p ps=0u w=650000u l=150000u
X64 a_12575_3855# a_11877_3861# a_12318_3829# vssd1 sky130_fd_pr__nfet_01v8 ad=0p pd=0u as=0p ps=0u w=360000u l=150000u
X65 vccd1 clknet_1_0__leaf_clk a_7203_3311# vccd1 sky130_fd_pr__pfet_01v8_hvt ad=0p pd=0u as=0p ps=0u w=640000u l=150000u
X66 vccd1 a_2686_2197# a_2615_2223# vccd1 sky130_fd_pr__pfet_01v8_hvt ad=0p pd=0u as=0p ps=0u w=750000u l=150000u
X67 vssd1 vccd1 vssd1 vssd1 sky130_fd_pr__nfet_01v8 ad=0p pd=0u as=0p ps=0u w=550000u l=1.05e+06u
X68 clknet_1_1__leaf_clk a_7930_3855# vccd1 vccd1 sky130_fd_pr__pfet_01v8_hvt ad=0p pd=0u as=0p ps=0u w=1e+06u l=150000u
X69 vssd1 vccd1 vssd1 vssd1 sky130_fd_pr__nfet_01v8 ad=0p pd=0u as=0p ps=0u w=550000u l=1.97e+06u
X70 vccd1 vssd1 vccd1 vccd1 sky130_fd_pr__pfet_01v8_hvt ad=0p pd=0u as=0p ps=0u w=870000u l=4.73e+06u
X71 vccd1 a_2019_5175# _30_ vccd1 sky130_fd_pr__pfet_01v8_hvt ad=0p pd=0u as=0p ps=0u w=1e+06u l=150000u
X72 net8 a_10811_3579# vssd1 vssd1 sky130_fd_pr__nfet_01v8 ad=0p pd=0u as=0p ps=0u w=650000u l=150000u
X73 a_10643_3677# a_9945_3311# a_10386_3423# vssd1 sky130_fd_pr__nfet_01v8 ad=0p pd=0u as=0p ps=0u w=360000u l=150000u
X74 vccd1 a_12323_2197# a_12330_2497# vccd1 sky130_fd_pr__pfet_01v8_hvt ad=0p pd=0u as=0p ps=0u w=640000u l=150000u
X75 vssd1 vccd1 vssd1 vssd1 sky130_fd_pr__nfet_01v8 ad=0p pd=0u as=0p ps=0u w=550000u l=590000u
X76 vssd1 a_7847_7127# dq[3] vssd1 sky130_fd_pr__nfet_01v8 ad=0p pd=0u as=1.755e+11p ps=1.84e+06u w=650000u l=150000u
X77 vccd1 vssd1 vccd1 vccd1 sky130_fd_pr__pfet_01v8_hvt ad=0p pd=0u as=0p ps=0u w=870000u l=1.05e+06u
X78 dq[5] a_14471_7127# vccd1 vccd1 sky130_fd_pr__pfet_01v8_hvt ad=2.7e+11p pd=2.54e+06u as=0p ps=0u w=1e+06u l=150000u
X79 vccd1 a_10567_4087# _05_ vccd1 sky130_fd_pr__pfet_01v8_hvt ad=0p pd=0u as=0p ps=0u w=1e+06u l=150000u
X80 clknet_1_0__leaf_clk a_2673_2741# vssd1 vssd1 sky130_fd_pr__nfet_01v8 ad=0p pd=0u as=0p ps=0u w=420000u l=150000u
X81 vccd1 a_7129_5241# a_7159_4982# vccd1 sky130_fd_pr__pfet_01v8_hvt ad=0p pd=0u as=0p ps=0u w=420000u l=150000u
X82 a_16463_3463# net2 vccd1 vccd1 sky130_fd_pr__pfet_01v8_hvt ad=0p pd=0u as=0p ps=0u w=420000u l=150000u
X83 vssd1 vccd1 vssd1 vssd1 sky130_fd_pr__nfet_01v8 ad=0p pd=0u as=0p ps=0u w=550000u l=1.05e+06u
X84 a_8325_5241# net11 vssd1 vssd1 sky130_fd_pr__nfet_01v8 ad=0p pd=0u as=0p ps=0u w=420000u l=150000u
X85 a_4149_3311# a_3983_3311# vssd1 vssd1 sky130_fd_pr__nfet_01v8 ad=0p pd=0u as=0p ps=0u w=420000u l=150000u
X86 clknet_0_clk a_7838_2767# vccd1 vccd1 sky130_fd_pr__pfet_01v8_hvt ad=0p pd=0u as=0p ps=0u w=1e+06u l=150000u
X87 vccd1 a_3031_4073# a_3038_3977# vccd1 sky130_fd_pr__pfet_01v8_hvt ad=0p pd=0u as=0p ps=0u w=640000u l=150000u
X88 a_16911_2986# _18_ vssd1 vssd1 sky130_fd_pr__nfet_01v8 ad=0p pd=0u as=0p ps=0u w=520000u l=150000u
X89 vccd1 vssd1 vccd1 vccd1 sky130_fd_pr__pfet_01v8_hvt ad=0p pd=0u as=0p ps=0u w=870000u l=590000u
X90 vssd1 vccd1 vssd1 vssd1 sky130_fd_pr__nfet_01v8 ad=0p pd=0u as=0p ps=0u w=550000u l=4.73e+06u
X91 vccd1 a_10598_4373# a_10527_4399# vccd1 sky130_fd_pr__pfet_01v8_hvt ad=0p pd=0u as=0p ps=0u w=750000u l=150000u
X92 a_17291_3463# _17_ vccd1 vccd1 sky130_fd_pr__pfet_01v8_hvt ad=0p pd=0u as=0p ps=0u w=420000u l=150000u
X93 a_9945_2223# a_9779_2223# vccd1 vccd1 sky130_fd_pr__pfet_01v8_hvt ad=0p pd=0u as=0p ps=0u w=640000u l=150000u
X94 vssd1 clknet_1_1__leaf_clk a_9779_2223# vssd1 sky130_fd_pr__nfet_01v8 ad=0p pd=0u as=0p ps=0u w=420000u l=150000u
X95 vssd1 a_13140_5175# _20_ vssd1 sky130_fd_pr__nfet_01v8 ad=0p pd=0u as=0p ps=0u w=650000u l=150000u
X96 clknet_1_0__leaf_clk a_2673_2741# vccd1 vccd1 sky130_fd_pr__pfet_01v8_hvt ad=0p pd=0u as=0p ps=0u w=1e+06u l=150000u
X97 dq[7] a_18059_7127# vssd1 vssd1 sky130_fd_pr__nfet_01v8 ad=1.755e+11p pd=1.84e+06u as=0p ps=0u w=650000u l=150000u
D0 vssd1 rst_n sky130_fd_pr__diode_pw2nd_05v5 pj=2.64e+06 area=4.347e+11
X98 vssd1 vccd1 vssd1 vssd1 sky130_fd_pr__nfet_01v8 ad=0p pd=0u as=0p ps=0u w=550000u l=590000u
X99 vssd1 a_7896_5175# _26_ vssd1 sky130_fd_pr__nfet_01v8 ad=0p pd=0u as=0p ps=0u w=650000u l=150000u
X100 vccd1 vssd1 vccd1 vccd1 sky130_fd_pr__pfet_01v8_hvt ad=0p pd=0u as=0p ps=0u w=870000u l=4.73e+06u
X101 vssd1 clknet_1_0__leaf_clk a_2051_3311# vssd1 sky130_fd_pr__nfet_01v8 ad=0p pd=0u as=0p ps=0u w=420000u l=150000u
X102 vssd1 rst_n a_1867_2767# vssd1 sky130_fd_pr__nfet_01v8 ad=0p pd=0u as=0p ps=0u w=420000u l=150000u
X103 vccd1 vssd1 vccd1 vccd1 sky130_fd_pr__pfet_01v8_hvt ad=0p pd=0u as=0p ps=0u w=870000u l=4.73e+06u
X104 net11 a_3083_4667# vccd1 vccd1 sky130_fd_pr__pfet_01v8_hvt ad=0p pd=0u as=0p ps=0u w=1e+06u l=150000u
X105 vssd1 vccd1 vssd1 vssd1 sky130_fd_pr__nfet_01v8 ad=0p pd=0u as=0p ps=0u w=550000u l=2.89e+06u
X106 a_10727_2589# a_9945_2223# a_10643_2589# vccd1 sky130_fd_pr__pfet_01v8_hvt ad=0p pd=0u as=0p ps=0u w=420000u l=150000u
X107 a_12659_3855# a_11877_3861# a_12575_3855# vccd1 sky130_fd_pr__pfet_01v8_hvt ad=0p pd=0u as=0p ps=0u w=420000u l=150000u
X108 vccd1 a_12318_2741# a_12245_2767# vccd1 sky130_fd_pr__pfet_01v8_hvt ad=0p pd=0u as=0p ps=0u w=420000u l=150000u
X109 clknet_0_clk a_7838_2767# vssd1 vssd1 sky130_fd_pr__nfet_01v8 ad=0p pd=0u as=0p ps=0u w=420000u l=150000u
X110 a_11855_4373# _17_ vccd1 vccd1 sky130_fd_pr__pfet_01v8_hvt ad=0p pd=0u as=0p ps=0u w=1e+06u l=150000u
X111 vssd1 vccd1 vssd1 vssd1 sky130_fd_pr__nfet_01v8 ad=0p pd=0u as=0p ps=0u w=550000u l=1.05e+06u
X112 a_12245_2767# a_11711_2773# a_12150_2767# vccd1 sky130_fd_pr__pfet_01v8_hvt ad=0p pd=0u as=0p ps=0u w=420000u l=150000u
X113 vccd1 vssd1 vccd1 vccd1 sky130_fd_pr__pfet_01v8_hvt ad=0p pd=0u as=0p ps=0u w=870000u l=590000u
X114 net5 a_3083_3579# vccd1 vccd1 sky130_fd_pr__pfet_01v8_hvt ad=0p pd=0u as=0p ps=0u w=1e+06u l=150000u
X115 vssd1 vccd1 vssd1 vssd1 sky130_fd_pr__nfet_01v8 ad=0p pd=0u as=0p ps=0u w=550000u l=4.73e+06u
X116 vccd1 vssd1 vccd1 vccd1 sky130_fd_pr__pfet_01v8_hvt ad=0p pd=0u as=0p ps=0u w=870000u l=4.73e+06u
X117 vccd1 vssd1 vccd1 vccd1 sky130_fd_pr__pfet_01v8_hvt ad=0p pd=0u as=0p ps=0u w=870000u l=590000u
X118 net11 a_3083_4667# vssd1 vssd1 sky130_fd_pr__nfet_01v8 ad=0p pd=0u as=0p ps=0u w=650000u l=150000u
X119 a_12150_3855# a_11711_3861# a_12065_3855# vssd1 sky130_fd_pr__nfet_01v8 ad=0p pd=0u as=0p ps=0u w=360000u l=150000u
X120 vccd1 vssd1 vccd1 vccd1 sky130_fd_pr__pfet_01v8_hvt ad=0p pd=0u as=0p ps=0u w=870000u l=2.89e+06u
X121 a_12771_5814# net1 a_12312_5639# vccd1 sky130_fd_pr__pfet_01v8_hvt ad=0p pd=0u as=0p ps=0u w=420000u l=150000u
X122 a_14478_5487# sr\[5\] vssd1 vssd1 sky130_fd_pr__nfet_01v8 ad=0p pd=0u as=0p ps=0u w=420000u l=150000u
X123 a_8355_4982# net1 a_7896_5175# vccd1 sky130_fd_pr__pfet_01v8_hvt ad=0p pd=0u as=0p ps=0u w=420000u l=150000u
X124 vssd1 vccd1 vssd1 vssd1 sky130_fd_pr__nfet_01v8 ad=0p pd=0u as=0p ps=0u w=550000u l=4.73e+06u
X125 vccd1 vssd1 vccd1 vccd1 sky130_fd_pr__pfet_01v8_hvt ad=0p pd=0u as=0p ps=0u w=870000u l=1.05e+06u
X126 a_4422_3677# a_4149_3311# a_4337_3311# vccd1 sky130_fd_pr__pfet_01v8_hvt ad=0p pd=0u as=0p ps=0u w=420000u l=150000u
X127 vssd1 a_7838_2767# clknet_0_clk vssd1 sky130_fd_pr__nfet_01v8 ad=0p pd=0u as=0p ps=0u w=420000u l=150000u
X128 a_14336_5639# net9 a_14478_5814# vccd1 sky130_fd_pr__pfet_01v8_hvt ad=0p pd=0u as=0p ps=0u w=420000u l=150000u
X129 vccd1 _15_ a_10945_4399# vccd1 sky130_fd_pr__pfet_01v8_hvt ad=0p pd=0u as=0p ps=0u w=420000u l=150000u
X130 clknet_1_0__leaf_clk a_2673_2741# vssd1 vssd1 sky130_fd_pr__nfet_01v8 ad=0p pd=0u as=0p ps=0u w=420000u l=150000u
X131 a_10218_3677# a_9779_3311# a_10133_3311# vssd1 sky130_fd_pr__nfet_01v8 ad=0p pd=0u as=0p ps=0u w=360000u l=150000u
X132 a_6792_5639# net6 a_6934_5814# vccd1 sky130_fd_pr__pfet_01v8_hvt ad=0p pd=0u as=0p ps=0u w=420000u l=150000u
X133 a_8259_5309# net4 a_7896_5175# vssd1 sky130_fd_pr__nfet_01v8 ad=0p pd=0u as=0p ps=0u w=420000u l=150000u
X134 vccd1 vssd1 vccd1 vccd1 sky130_fd_pr__pfet_01v8_hvt ad=0p pd=0u as=0p ps=0u w=870000u l=2.89e+06u
X135 a_12276_4233# a_11877_3861# a_12150_3855# vssd1 sky130_fd_pr__nfet_01v8 ad=0p pd=0u as=0p ps=0u w=360000u l=150000u
X136 vssd1 vccd1 vssd1 vssd1 sky130_fd_pr__nfet_01v8 ad=0p pd=0u as=0p ps=0u w=550000u l=4.73e+06u
X137 vssd1 _30_ a_1959_3855# vssd1 sky130_fd_pr__nfet_01v8 ad=0p pd=0u as=0p ps=0u w=520000u l=150000u
X138 clknet_0_clk a_7838_2767# vccd1 vccd1 sky130_fd_pr__pfet_01v8_hvt ad=0p pd=0u as=0p ps=0u w=1e+06u l=150000u
X139 a_11877_3861# a_11711_3861# vssd1 vssd1 sky130_fd_pr__nfet_01v8 ad=0p pd=0u as=0p ps=0u w=420000u l=150000u
X140 vccd1 a_4036_7093# dq[1] vccd1 sky130_fd_pr__pfet_01v8_hvt ad=0p pd=0u as=2.7e+11p ps=2.54e+06u w=1e+06u l=150000u
X141 vssd1 vccd1 vssd1 vssd1 sky130_fd_pr__nfet_01v8 ad=0p pd=0u as=0p ps=0u w=550000u l=1.97e+06u
X142 a_2405_3311# _08_ vccd1 vccd1 sky130_fd_pr__pfet_01v8_hvt ad=0p pd=0u as=0p ps=0u w=420000u l=150000u
X143 vccd1 a_7930_3855# clknet_1_1__leaf_clk vccd1 sky130_fd_pr__pfet_01v8_hvt ad=0p pd=0u as=0p ps=0u w=1e+06u l=150000u
X144 a_2658_3423# a_2490_3677# vssd1 vssd1 sky130_fd_pr__nfet_01v8 ad=0p pd=0u as=0p ps=0u w=640000u l=150000u
X145 a_10344_3311# a_9945_3311# a_10218_3677# vssd1 sky130_fd_pr__nfet_01v8 ad=0p pd=0u as=0p ps=0u w=360000u l=150000u
X146 vccd1 vssd1 vccd1 vccd1 sky130_fd_pr__pfet_01v8_hvt ad=0p pd=0u as=0p ps=0u w=870000u l=4.73e+06u
X147 vccd1 vssd1 vccd1 vccd1 sky130_fd_pr__pfet_01v8_hvt ad=0p pd=0u as=0p ps=0u w=870000u l=590000u
X148 dq[1] a_4036_7093# vssd1 vssd1 sky130_fd_pr__nfet_01v8 ad=1.755e+11p pd=1.84e+06u as=0p ps=0u w=650000u l=150000u
X149 a_6700_5175# net5 a_6842_4982# vccd1 sky130_fd_pr__pfet_01v8_hvt ad=0p pd=0u as=0p ps=0u w=420000u l=150000u
X150 vssd1 a_12575_3855# a_12743_3829# vssd1 sky130_fd_pr__nfet_01v8 ad=0p pd=0u as=0p ps=0u w=650000u l=150000u
X151 vssd1 vccd1 vssd1 vssd1 sky130_fd_pr__nfet_01v8 ad=0p pd=0u as=0p ps=0u w=550000u l=1.97e+06u
X152 vccd1 a_17291_3463# _18_ vccd1 sky130_fd_pr__pfet_01v8_hvt ad=0p pd=0u as=0p ps=0u w=1e+06u l=150000u
X153 vssd1 vccd1 vssd1 vssd1 sky130_fd_pr__nfet_01v8 ad=0p pd=0u as=0p ps=0u w=550000u l=4.73e+06u
X154 a_12073_4399# sr\[7\] vssd1 vssd1 sky130_fd_pr__nfet_01v8 ad=0p pd=0u as=0p ps=0u w=650000u l=150000u
X155 vccd1 vssd1 vccd1 vccd1 sky130_fd_pr__pfet_01v8_hvt ad=0p pd=0u as=0p ps=0u w=870000u l=4.73e+06u
X156 vssd1 vccd1 vssd1 vssd1 sky130_fd_pr__nfet_01v8 ad=0p pd=0u as=0p ps=0u w=550000u l=4.73e+06u
X157 vccd1 a_4590_3423# a_4517_3677# vccd1 sky130_fd_pr__pfet_01v8_hvt ad=0p pd=0u as=0p ps=0u w=420000u l=150000u
X158 vssd1 vccd1 vssd1 vssd1 sky130_fd_pr__nfet_01v8 ad=0p pd=0u as=0p ps=0u w=550000u l=2.89e+06u
X159 a_10349_5461# sr\[3\] vccd1 vccd1 sky130_fd_pr__pfet_01v8_hvt ad=0p pd=0u as=0p ps=0u w=420000u l=150000u
X160 vssd1 vccd1 vssd1 vssd1 sky130_fd_pr__nfet_01v8 ad=0p pd=0u as=0p ps=0u w=550000u l=590000u
X161 a_5617_2223# a_4627_2223# a_5491_2589# vssd1 sky130_fd_pr__nfet_01v8 ad=0p pd=0u as=0p ps=0u w=360000u l=150000u
X162 vccd1 vssd1 vccd1 vccd1 sky130_fd_pr__pfet_01v8_hvt ad=0p pd=0u as=0p ps=0u w=870000u l=4.73e+06u
X163 vccd1 a_7838_2767# clknet_0_clk vccd1 sky130_fd_pr__pfet_01v8_hvt ad=0p pd=0u as=0p ps=0u w=1e+06u l=150000u
X164 vccd1 a_12667_3677# a_12835_3579# vccd1 sky130_fd_pr__pfet_01v8_hvt ad=0p pd=0u as=0p ps=0u w=1e+06u l=150000u
X165 vssd1 a_10386_3423# a_10344_3311# vssd1 sky130_fd_pr__nfet_01v8 ad=0p pd=0u as=0p ps=0u w=420000u l=150000u
X166 a_6842_4982# sr\[1\] vccd1 vccd1 sky130_fd_pr__pfet_01v8_hvt ad=0p pd=0u as=0p ps=0u w=420000u l=150000u
X167 net7 a_8235_3579# vccd1 vccd1 sky130_fd_pr__pfet_01v8_hvt ad=0p pd=0u as=0p ps=0u w=1e+06u l=150000u
X168 vssd1 a_5692_7093# dq[2] vssd1 sky130_fd_pr__nfet_01v8 ad=0p pd=0u as=1.755e+11p ps=1.84e+06u w=650000u l=150000u
X169 vssd1 vccd1 vssd1 vssd1 sky130_fd_pr__nfet_01v8 ad=0p pd=0u as=0p ps=0u w=550000u l=1.05e+06u
X170 vssd1 vccd1 vssd1 vssd1 sky130_fd_pr__nfet_01v8 ad=0p pd=0u as=0p ps=0u w=550000u l=590000u
X171 vccd1 clk a_7838_2767# vccd1 sky130_fd_pr__pfet_01v8_hvt ad=0p pd=0u as=0p ps=0u w=1e+06u l=150000u
X172 vccd1 a_15807_3476# _16_ vccd1 sky130_fd_pr__pfet_01v8_hvt ad=0p pd=0u as=0p ps=0u w=790000u l=150000u
X173 vccd1 vssd1 vccd1 vccd1 sky130_fd_pr__pfet_01v8_hvt ad=0p pd=0u as=0p ps=0u w=870000u l=1.97e+06u
X174 sr\[1\] a_7775_4667# vccd1 vccd1 sky130_fd_pr__pfet_01v8_hvt ad=0p pd=0u as=0p ps=0u w=1e+06u l=150000u
X175 vssd1 a_12775_4373# _04_ vssd1 sky130_fd_pr__nfet_01v8 ad=0p pd=0u as=0p ps=0u w=650000u l=150000u
X176 vssd1 vccd1 vssd1 vssd1 sky130_fd_pr__nfet_01v8 ad=0p pd=0u as=0p ps=0u w=550000u l=4.73e+06u
X177 a_6792_5639# net1 a_6934_5487# vssd1 sky130_fd_pr__nfet_01v8 ad=0p pd=0u as=0p ps=0u w=420000u l=150000u
X178 a_6553_3311# _17_ a_6335_3285# vssd1 sky130_fd_pr__nfet_01v8 ad=0p pd=0u as=0p ps=0u w=650000u l=150000u
X179 vccd1 vssd1 vccd1 vccd1 sky130_fd_pr__pfet_01v8_hvt ad=0p pd=0u as=0p ps=0u w=870000u l=2.89e+06u
X180 a_10901_5241# sr_dly\[0\] vccd1 vccd1 sky130_fd_pr__pfet_01v8_hvt ad=0p pd=0u as=0p ps=0u w=420000u l=150000u
X181 vssd1 vccd1 vssd1 vssd1 sky130_fd_pr__nfet_01v8 ad=0p pd=0u as=0p ps=0u w=550000u l=1.05e+06u
X182 vccd1 a_5262_4132# a_5191_4233# vccd1 sky130_fd_pr__pfet_01v8_hvt ad=0p pd=0u as=0p ps=0u w=750000u l=150000u
X183 vccd1 sr\[6\] a_13078_4649# vccd1 sky130_fd_pr__pfet_01v8_hvt ad=0p pd=0u as=0p ps=0u w=1e+06u l=150000u
X184 vccd1 vssd1 vccd1 vccd1 sky130_fd_pr__pfet_01v8_hvt ad=0p pd=0u as=0p ps=0u w=870000u l=1.05e+06u
X185 dq[0] a_1644_7093# vssd1 vssd1 sky130_fd_pr__nfet_01v8 ad=1.755e+11p pd=1.84e+06u as=0p ps=0u w=650000u l=150000u
X186 vccd1 a_2673_2741# clknet_1_0__leaf_clk vccd1 sky130_fd_pr__pfet_01v8_hvt ad=0p pd=0u as=0p ps=0u w=1e+06u l=150000u
X187 vccd1 a_13569_5241# a_13599_4982# vccd1 sky130_fd_pr__pfet_01v8_hvt ad=0p pd=0u as=0p ps=0u w=420000u l=150000u
X188 clknet_1_0__leaf_clk a_2673_2741# vssd1 vssd1 sky130_fd_pr__nfet_01v8 ad=0p pd=0u as=0p ps=0u w=420000u l=150000u
X189 vccd1 vssd1 vccd1 vccd1 sky130_fd_pr__pfet_01v8_hvt ad=0p pd=0u as=0p ps=0u w=870000u l=590000u
X190 a_2490_4765# a_2051_4399# a_2405_4399# vssd1 sky130_fd_pr__nfet_01v8 ad=0p pd=0u as=0p ps=0u w=360000u l=150000u
X191 vssd1 a_16911_2986# _01_ vssd1 sky130_fd_pr__nfet_01v8 ad=0p pd=0u as=0p ps=0u w=520000u l=150000u
X192 a_7607_4765# a_6909_4399# a_7350_4511# vssd1 sky130_fd_pr__nfet_01v8 ad=0p pd=0u as=0p ps=0u w=360000u l=150000u
X193 vccd1 a_4847_3677# a_5015_3579# vccd1 sky130_fd_pr__pfet_01v8_hvt ad=0p pd=0u as=0p ps=0u w=1e+06u l=150000u
X194 a_7557_3311# _06_ vccd1 vccd1 sky130_fd_pr__pfet_01v8_hvt ad=0p pd=0u as=0p ps=0u w=420000u l=150000u
X195 a_7347_2197# a_7638_2497# a_7589_2589# vccd1 sky130_fd_pr__pfet_01v8_hvt ad=0p pd=0u as=0p ps=0u w=420000u l=150000u
X196 vssd1 a_7838_2767# clknet_0_clk vssd1 sky130_fd_pr__nfet_01v8 ad=0p pd=0u as=0p ps=0u w=420000u l=150000u
X197 a_10133_3311# _05_ vssd1 vssd1 sky130_fd_pr__nfet_01v8 ad=0p pd=0u as=0p ps=0u w=420000u l=150000u
X198 vssd1 net2 a_16981_4193# vssd1 sky130_fd_pr__nfet_01v8 ad=0p pd=0u as=0p ps=0u w=420000u l=150000u
X199 vssd1 a_2651_4087# sr\[3\] vssd1 sky130_fd_pr__nfet_01v8 ad=0p pd=0u as=0p ps=0u w=650000u l=150000u
X200 vccd1 vssd1 vccd1 vccd1 sky130_fd_pr__pfet_01v8_hvt ad=0p pd=0u as=0p ps=0u w=870000u l=2.89e+06u
X201 clknet_1_1__leaf_clk a_7930_3855# vssd1 vssd1 sky130_fd_pr__nfet_01v8 ad=0p pd=0u as=0p ps=0u w=420000u l=150000u
X202 vssd1 a_5659_2491# a_5617_2223# vssd1 sky130_fd_pr__nfet_01v8 ad=0p pd=0u as=0p ps=0u w=420000u l=150000u
X203 a_2616_4399# a_2217_4399# a_2490_4765# vssd1 sky130_fd_pr__nfet_01v8 ad=0p pd=0u as=0p ps=0u w=360000u l=150000u
X204 vccd1 a_5875_4373# _09_ vccd1 sky130_fd_pr__pfet_01v8_hvt ad=0p pd=0u as=0p ps=0u w=1e+06u l=150000u
X205 vssd1 a_4955_4373# _07_ vssd1 sky130_fd_pr__nfet_01v8 ad=0p pd=0u as=0p ps=0u w=650000u l=150000u
X206 vccd1 vssd1 vccd1 vccd1 sky130_fd_pr__pfet_01v8_hvt ad=0p pd=0u as=0p ps=0u w=870000u l=4.73e+06u
X207 a_2437_2589# a_2099_2375# vccd1 vccd1 sky130_fd_pr__pfet_01v8_hvt ad=0p pd=0u as=0p ps=0u w=420000u l=150000u
X208 a_3111_5652# _28_ vccd1 vccd1 sky130_fd_pr__pfet_01v8_hvt ad=0p pd=0u as=0p ps=0u w=790000u l=150000u
X209 vccd1 vssd1 vccd1 vccd1 sky130_fd_pr__pfet_01v8_hvt ad=0p pd=0u as=0p ps=0u w=870000u l=1.97e+06u
X210 net7 a_8235_3579# vssd1 vssd1 sky130_fd_pr__nfet_01v8 ad=0p pd=0u as=0p ps=0u w=650000u l=150000u
X211 vssd1 vccd1 vssd1 vssd1 sky130_fd_pr__nfet_01v8 ad=0p pd=0u as=0p ps=0u w=550000u l=1.97e+06u
X212 vccd1 a_7631_2197# a_7638_2497# vccd1 sky130_fd_pr__pfet_01v8_hvt ad=0p pd=0u as=0p ps=0u w=640000u l=150000u
X213 vccd1 sr\[3\] a_5258_4649# vccd1 sky130_fd_pr__pfet_01v8_hvt ad=0p pd=0u as=0p ps=0u w=1e+06u l=150000u
X214 vssd1 vccd1 vssd1 vssd1 sky130_fd_pr__nfet_01v8 ad=0p pd=0u as=0p ps=0u w=550000u l=2.89e+06u
X215 a_2747_4087# a_3031_4073# a_2966_4221# vssd1 sky130_fd_pr__nfet_01v8 ad=0p pd=0u as=0p ps=0u w=360000u l=150000u
X216 _00_ _17_ vccd1 vccd1 sky130_fd_pr__pfet_01v8_hvt ad=0p pd=0u as=0p ps=0u w=1e+06u l=150000u
X217 vccd1 vssd1 vccd1 vccd1 sky130_fd_pr__pfet_01v8_hvt ad=0p pd=0u as=0p ps=0u w=870000u l=1.05e+06u
X218 vssd1 a_2658_4511# a_2616_4399# vssd1 sky130_fd_pr__nfet_01v8 ad=0p pd=0u as=0p ps=0u w=420000u l=150000u
X219 vssd1 vccd1 vssd1 vssd1 sky130_fd_pr__nfet_01v8 ad=0p pd=0u as=0p ps=0u w=550000u l=1.05e+06u
X220 clknet_1_1__leaf_clk a_7930_3855# vccd1 vccd1 sky130_fd_pr__pfet_01v8_hvt ad=0p pd=0u as=0p ps=0u w=1e+06u l=150000u
X221 vssd1 _16_ a_8185_2223# vssd1 sky130_fd_pr__nfet_01v8 ad=0p pd=0u as=0p ps=0u w=420000u l=150000u
X222 vssd1 a_2673_2741# clknet_1_0__leaf_clk vssd1 sky130_fd_pr__nfet_01v8 ad=0p pd=0u as=0p ps=0u w=420000u l=150000u
X223 vssd1 vccd1 vssd1 vssd1 sky130_fd_pr__nfet_01v8 ad=0p pd=0u as=0p ps=0u w=550000u l=1.05e+06u
X224 vssd1 a_12312_5639# _22_ vssd1 sky130_fd_pr__nfet_01v8 ad=0p pd=0u as=0p ps=0u w=650000u l=150000u
X225 vssd1 vccd1 vssd1 vssd1 sky130_fd_pr__nfet_01v8 ad=0p pd=0u as=0p ps=0u w=550000u l=590000u
X226 vccd1 vssd1 vccd1 vccd1 sky130_fd_pr__pfet_01v8_hvt ad=0p pd=0u as=0p ps=0u w=870000u l=590000u
X227 vccd1 vssd1 vccd1 vccd1 sky130_fd_pr__pfet_01v8_hvt ad=0p pd=0u as=0p ps=0u w=870000u l=1.05e+06u
X228 vccd1 a_7838_2767# clknet_0_clk vccd1 sky130_fd_pr__pfet_01v8_hvt ad=0p pd=0u as=0p ps=0u w=1e+06u l=150000u
X229 net2 a_1867_2767# vssd1 vssd1 sky130_fd_pr__nfet_01v8 ad=0p pd=0u as=0p ps=0u w=420000u l=150000u
X230 vssd1 vccd1 vssd1 vssd1 sky130_fd_pr__nfet_01v8 ad=0p pd=0u as=0p ps=0u w=550000u l=2.89e+06u
X231 vssd1 vccd1 vssd1 vssd1 sky130_fd_pr__nfet_01v8 ad=0p pd=0u as=0p ps=0u w=550000u l=4.73e+06u
X232 vccd1 vssd1 vccd1 vccd1 sky130_fd_pr__pfet_01v8_hvt ad=0p pd=0u as=0p ps=0u w=870000u l=2.89e+06u
X233 vssd1 vccd1 vssd1 vssd1 sky130_fd_pr__nfet_01v8 ad=0p pd=0u as=0p ps=0u w=550000u l=2.89e+06u
X234 vccd1 a_5491_2589# a_5659_2491# vccd1 sky130_fd_pr__pfet_01v8_hvt ad=0p pd=0u as=0p ps=0u w=1e+06u l=150000u
X235 a_2615_2223# a_2479_2197# a_2195_2197# vccd1 sky130_fd_pr__pfet_01v8_hvt ad=0p pd=0u as=0p ps=0u w=420000u l=150000u
X236 vssd1 vccd1 vssd1 vssd1 sky130_fd_pr__nfet_01v8 ad=0p pd=0u as=0p ps=0u w=550000u l=4.73e+06u
X237 vccd1 vssd1 vccd1 vccd1 sky130_fd_pr__pfet_01v8_hvt ad=0p pd=0u as=0p ps=0u w=870000u l=4.73e+06u
X238 vccd1 a_4675_4087# net4 vccd1 sky130_fd_pr__pfet_01v8_hvt ad=0p pd=0u as=0p ps=0u w=1e+06u l=150000u
X239 vssd1 vccd1 vssd1 vssd1 sky130_fd_pr__nfet_01v8 ad=0p pd=0u as=0p ps=0u w=550000u l=4.73e+06u
X240 dq[2] a_5692_7093# vccd1 vccd1 sky130_fd_pr__pfet_01v8_hvt ad=2.7e+11p pd=2.54e+06u as=0p ps=0u w=1e+06u l=150000u
X241 vccd1 a_4043_4551# _28_ vccd1 sky130_fd_pr__pfet_01v8_hvt ad=0p pd=0u as=0p ps=0u w=1e+06u l=150000u
X242 vccd1 vssd1 vccd1 vccd1 sky130_fd_pr__pfet_01v8_hvt ad=0p pd=0u as=0p ps=0u w=870000u l=590000u
X243 vccd1 clknet_0_clk a_7930_3855# vccd1 sky130_fd_pr__pfet_01v8_hvt ad=0p pd=0u as=0p ps=0u w=1e+06u l=150000u
X244 vccd1 a_12530_2197# a_12459_2223# vccd1 sky130_fd_pr__pfet_01v8_hvt ad=0p pd=0u as=0p ps=0u w=750000u l=150000u
X245 a_7838_2197# a_7631_2197# a_8014_2589# vccd1 sky130_fd_pr__pfet_01v8_hvt ad=0p pd=0u as=0p ps=0u w=420000u l=150000u
X246 vccd1 a_2099_2375# net3 vccd1 sky130_fd_pr__pfet_01v8_hvt ad=0p pd=0u as=0p ps=0u w=1e+06u l=150000u
X247 vssd1 a_10472_5175# _27_ vssd1 sky130_fd_pr__nfet_01v8 ad=0p pd=0u as=0p ps=0u w=650000u l=150000u
X248 a_10379_5814# net1 a_9920_5639# vccd1 sky130_fd_pr__pfet_01v8_hvt ad=0p pd=0u as=0p ps=0u w=420000u l=150000u
X249 a_2405_4399# _11_ vssd1 vssd1 sky130_fd_pr__nfet_01v8 ad=0p pd=0u as=0p ps=0u w=420000u l=150000u
X250 vssd1 vccd1 vssd1 vssd1 sky130_fd_pr__nfet_01v8 ad=0p pd=0u as=0p ps=0u w=550000u l=1.97e+06u
X251 a_14411_4427# sr\[7\] vccd1 vccd1 sky130_fd_pr__pfet_01v8_hvt ad=0p pd=0u as=0p ps=0u w=420000u l=150000u
X252 vccd1 vssd1 vccd1 vccd1 sky130_fd_pr__pfet_01v8_hvt ad=0p pd=0u as=0p ps=0u w=870000u l=2.89e+06u
X253 clknet_0_clk a_7838_2767# vccd1 vccd1 sky130_fd_pr__pfet_01v8_hvt ad=0p pd=0u as=0p ps=0u w=1e+06u l=150000u
X254 vssd1 vccd1 vssd1 vssd1 sky130_fd_pr__nfet_01v8 ad=0p pd=0u as=0p ps=0u w=550000u l=590000u
X255 vccd1 sr\[4\] a_9490_4943# vccd1 sky130_fd_pr__pfet_01v8_hvt ad=0p pd=0u as=0p ps=0u w=1e+06u l=150000u
X256 vssd1 a_2479_2197# a_2486_2497# vssd1 sky130_fd_pr__nfet_01v8 ad=0p pd=0u as=0p ps=0u w=420000u l=150000u
X257 vssd1 a_15807_3476# _16_ vssd1 sky130_fd_pr__nfet_01v8 ad=0p pd=0u as=0p ps=0u w=520000u l=150000u
X258 vccd1 vssd1 vccd1 vccd1 sky130_fd_pr__pfet_01v8_hvt ad=0p pd=0u as=0p ps=0u w=870000u l=4.73e+06u
X259 a_2999_4765# a_2217_4399# a_2915_4765# vccd1 sky130_fd_pr__pfet_01v8_hvt ad=0p pd=0u as=0p ps=0u w=420000u l=150000u
X260 a_7182_4765# a_6743_4399# a_7097_4399# vssd1 sky130_fd_pr__nfet_01v8 ad=0p pd=0u as=0p ps=0u w=360000u l=150000u
X261 vccd1 a_2658_3423# a_2585_3677# vccd1 sky130_fd_pr__pfet_01v8_hvt ad=0p pd=0u as=0p ps=0u w=420000u l=150000u
X262 vssd1 a_3083_3579# a_3041_3311# vssd1 sky130_fd_pr__nfet_01v8 ad=0p pd=0u as=0p ps=0u w=420000u l=150000u
X263 a_6335_3285# _17_ vccd1 vccd1 sky130_fd_pr__pfet_01v8_hvt ad=0p pd=0u as=0p ps=0u w=1e+06u l=150000u
X264 a_7838_2767# clk vccd1 vccd1 sky130_fd_pr__pfet_01v8_hvt ad=0p pd=0u as=0p ps=0u w=1e+06u l=150000u
X265 a_14765_5461# sr\[5\] vccd1 vccd1 sky130_fd_pr__pfet_01v8_hvt ad=0p pd=0u as=0p ps=0u w=420000u l=150000u
X266 vssd1 vccd1 vssd1 vssd1 sky130_fd_pr__nfet_01v8 ad=0p pd=0u as=0p ps=0u w=550000u l=1.05e+06u
X267 a_5875_4373# _17_ vccd1 vccd1 sky130_fd_pr__pfet_01v8_hvt ad=0p pd=0u as=0p ps=0u w=1e+06u l=150000u
X268 clknet_1_0__leaf_clk a_2673_2741# vccd1 vccd1 sky130_fd_pr__pfet_01v8_hvt ad=0p pd=0u as=0p ps=0u w=1e+06u l=150000u
X269 vssd1 vccd1 vssd1 vssd1 sky130_fd_pr__nfet_01v8 ad=0p pd=0u as=0p ps=0u w=550000u l=4.73e+06u
X270 vccd1 vssd1 vccd1 vccd1 sky130_fd_pr__pfet_01v8_hvt ad=0p pd=0u as=0p ps=0u w=870000u l=590000u
X271 vccd1 net11 a_17507_2223# vccd1 sky130_fd_pr__pfet_01v8_hvt ad=0p pd=0u as=0p ps=0u w=640000u l=150000u
X272 vccd1 vssd1 vccd1 vccd1 sky130_fd_pr__pfet_01v8_hvt ad=0p pd=0u as=0p ps=0u w=870000u l=1.97e+06u