** sch_path: /home/andylithia/openmpw/Project-Reisen-Chip1/xschem/daccon_tb.sch
**.subckt daccon_tb
x1 net3 net2 GND net1 clk msb15 rst_n msb14 msb13 GND GND msb12 GND msb11 msb10 GND GND msb9 msb8
+ GND msb7 GND msb6 GND GND msb5 GND msb4 msb3 msb2 msb1 msb0 lsb6 lsb5 lsb4 lsb3 lsb2 lsb1 lsb0 daccon
V1 clk GND PULSE(0 1.8 1n 1n 1n 10n 20n)
.save i(v1)
V2 net1 GND 1.8
.save i(v2)
V3 net2 GND 0
.save i(v3)
V4 rst_n GND PULSE(1.8 0 1n 1n 1n 40n 1)
.save i(v4)
V5 net3 GND 1.8
.save i(v5)
**** begin user architecture code
.lib /home/andylithia/openmpw/pdk_1/sky130A/libs.tech/ngspice/sky130.lib.spice tt
.include /home/andylithia/openmpw/pdk_1/sky130A/libs.ref/sky130_fd_sc_hd/spice/sky130_fd_sc_hd.spice


*.ac dec 100 1e3 1e12
.tran 1ns 250000ns
.save all
.control
run
display
plot vout gn gp
.endc


**** end user architecture code
**.ends

* expanding   symbol:  daccon.sym # of pins=39
** sym_path: /home/andylithia/openmpw/Project-Reisen-Chip1/xschem/daccon.sym
** sch_path: /home/andylithia/openmpw/Project-Reisen-Chip1/xschem/daccon.sch
.subckt daccon vccd1 dummy vssd1 test_mode clk msb[15] rst_n msb[14] msb[13] dac_in[9] dac_in[8]
+ msb[12] dac_in[7] msb[11] msb[10] dac_in[6] dac_in[5] msb[9] msb[8] dac_in[4] msb[7] dac_in[3] msb[6]
+ dac_in[2] dac_in[1] msb[5] dac_in[0] msb[4] msb[3] msb[2] msb[1] msb[0] lsb[6] lsb[5] lsb[4] lsb[3] lsb[2]
+ lsb[1] lsb[0]
*.ipin test_mode
*.ipin clk
*.ipin rst_n
*.ipin dac_in[9]
*.ipin dac_in[8]
*.ipin dac_in[7]
*.ipin dac_in[6]
*.ipin dac_in[5]
*.ipin dac_in[4]
*.ipin dac_in[3]
*.ipin dac_in[2]
*.ipin dac_in[1]
*.ipin dac_in[0]
*.iopin vccd1
*.iopin vssd1
*.ipin dummy
*.opin msb[15]
*.opin msb[14]
*.opin msb[13]
*.opin msb[12]
*.opin msb[11]
*.opin msb[10]
*.opin msb[9]
*.opin msb[8]
*.opin msb[7]
*.opin msb[6]
*.opin msb[5]
*.opin msb[4]
*.opin msb[3]
*.opin msb[2]
*.opin msb[1]
*.opin msb[0]
*.opin lsb[6]
*.opin lsb[5]
*.opin lsb[4]
*.opin lsb[3]
*.opin lsb[2]
*.opin lsb[1]
*.opin lsb[0]
**** begin user architecture code

* NGSPICE file created from dac_con.ext - technology: sky130A

.subckt dac_con clk dac_in[0] dac_in[1] dac_in[2] dac_in[3] dac_in[4] dac_in[5] dac_in[6]  dac_in[7]
+ dac_in[8] dac_in[9] dummy llsb llsb_n lsb[0] lsb[1] lsb[2] lsb[3] lsb[4]  lsb[5] lsb_n[0] lsb_n[1] lsb_n[2]
+ lsb_n[3] lsb_n[4] lsb_n[5] msb[0] msb[10] msb[11]  msb[12] msb[13] msb[14] msb[15] msb[1] msb[2] msb[3]
+ msb[4] msb[5] msb[6] msb[7]  msb[8] msb[9] msb_n[0] msb_n[10] msb_n[11] msb_n[12] msb_n[13] msb_n[14]
+ msb_n[15]  msb_n[1] msb_n[2] msb_n[3] msb_n[4] msb_n[5] msb_n[6] msb_n[7] msb_n[8] msb_n[9]  rst_n test_mode
+ vccd1 vssd1

X0 a_12627_4649# _196_.A a_12409_4373# vccd1 sky130_fd_pr__pfet_01v8_hvt ad=0p pd=0u as=0p ps=0u
+ w=1e+06u l=150000u
X1 a_4894_4373# a_4694_4673# a_5043_4399# vssd1 sky130_fd_pr__nfet_01v8 ad=0p pd=0u as=0p ps=0u
+ w=360000u l=150000u
X2 vccd1 _133_.Y a_31480_3561# vccd1 sky130_fd_pr__pfet_01v8_hvt ad=2.99018e+14p pd=2.87785e+09u
+ as=0p ps=0u w=1e+06u l=150000u
X3 a_7624_7093# output46.A vccd1 vccd1 sky130_fd_pr__pfet_01v8_hvt ad=0p pd=0u as=0p ps=0u w=640000u
+ l=150000u
X4 a_31589_4221# _125_.A2 a_31517_4221# vssd1 sky130_fd_pr__nfet_01v8 ad=0p pd=0u as=0p ps=0u
+ w=420000u l=150000u
X5 _094_.Y output28.A vccd1 vccd1 sky130_fd_pr__pfet_01v8_hvt ad=0p pd=0u as=0p ps=0u w=1e+06u
+ l=150000u
X6 _148_.B1 _133_.A a_3063_2473# vccd1 sky130_fd_pr__pfet_01v8_hvt ad=0p pd=0u as=0p ps=0u w=1e+06u
+ l=150000u
X7 vssd1 a_16180_3285# _208_.X vssd1 sky130_fd_pr__nfet_01v8 ad=1.91416e+14p pd=2.07373e+09u as=0p
+ ps=0u w=650000u l=150000u
X8 a_22369_4943# _235_.D vssd1 vssd1 sky130_fd_pr__nfet_01v8 ad=0p pd=0u as=0p ps=0u w=420000u
+ l=150000u
X9 vccd1 vssd1 vccd1 vccd1 sky130_fd_pr__pfet_01v8_hvt ad=0p pd=0u as=0p ps=0u w=870000u l=4.73e+06u
X10 a_20131_2375# a_20227_2197# vssd1 vssd1 sky130_fd_pr__nfet_01v8 ad=0p pd=0u as=0p ps=0u
+ w=650000u l=150000u
X11 output23.A output17.A vccd1 vccd1 sky130_fd_pr__pfet_01v8_hvt ad=0p pd=0u as=0p ps=0u w=1e+06u
+ l=150000u
X12 output15.A _093_.A vccd1 vccd1 sky130_fd_pr__pfet_01v8_hvt ad=0p pd=0u as=0p ps=0u w=1e+06u
+ l=150000u
X13 vssd1 vccd1 vssd1 vssd1 sky130_fd_pr__nfet_01v8 ad=0p pd=0u as=0p ps=0u w=550000u l=1.05e+06u
X14 vccd1 a_5600_7093# msb[13] vccd1 sky130_fd_pr__pfet_01v8_hvt ad=0p pd=0u as=2.7e+11p
+ ps=2.54e+06u w=1e+06u l=150000u
X15 vssd1 a_13445_2375# _203_.A2 vssd1 sky130_fd_pr__nfet_01v8 ad=0p pd=0u as=0p ps=0u w=650000u
+ l=150000u
X16 a_27422_4765# a_27149_4399# a_27337_4399# vccd1 sky130_fd_pr__pfet_01v8_hvt ad=0p pd=0u as=0p
+ ps=0u w=420000u l=150000u
X17 vccd1 a_17911_4943# a_18079_4917# vccd1 sky130_fd_pr__pfet_01v8_hvt ad=0p pd=0u as=0p ps=0u
+ w=1e+06u l=150000u
X18 a_16507_4399# a_16378_4673# a_16087_4373# vssd1 sky130_fd_pr__nfet_01v8 ad=0p pd=0u as=0p ps=0u
+ w=360000u l=150000u
X19 vssd1 output41.A a_15299_7127# vssd1 sky130_fd_pr__nfet_01v8 ad=0p pd=0u as=0p ps=0u w=420000u
+ l=150000u
X20 a_8079_5309# a_7859_5321# vssd1 vssd1 sky130_fd_pr__nfet_01v8 ad=0p pd=0u as=0p ps=0u w=420000u
+ l=150000u
X21 vssd1 vccd1 vssd1 vssd1 sky130_fd_pr__nfet_01v8 ad=0p pd=0u as=0p ps=0u w=550000u l=4.73e+06u
X22 vccd1 a_4687_4373# a_4694_4673# vccd1 sky130_fd_pr__pfet_01v8_hvt ad=0p pd=0u as=0p ps=0u
+ w=640000u l=150000u
X23 vccd1 _209_.CLK a_28547_3861# vccd1 sky130_fd_pr__pfet_01v8_hvt ad=0p pd=0u as=0p ps=0u
+ w=640000u l=150000u
X24 vccd1 a_14894_2335# a_14821_2589# vccd1 sky130_fd_pr__pfet_01v8_hvt ad=0p pd=0u as=0p ps=0u
+ w=420000u l=150000u
X25 vssd1 a_15319_2491# a_15277_2223# vssd1 sky130_fd_pr__nfet_01v8 ad=0p pd=0u as=0p ps=0u
+ w=420000u l=150000u
X26 a_5967_5461# a_6251_5461# a_6186_5487# vssd1 sky130_fd_pr__nfet_01v8 ad=0p pd=0u as=0p ps=0u
+ w=360000u l=150000u
X27 a_36783_5162# _163_.A vccd1 vccd1 sky130_fd_pr__pfet_01v8_hvt ad=0p pd=0u as=0p ps=0u w=790000u
+ l=150000u
X28 a_28389_3339# _162_.A a_28303_3339# vssd1 sky130_fd_pr__nfet_01v8 ad=0p pd=0u as=0p ps=0u
+ w=420000u l=150000u
X29 vccd1 _177_.B a_25635_3105# vccd1 sky130_fd_pr__pfet_01v8_hvt ad=0p pd=0u as=0p ps=0u w=420000u
+ l=150000u
X30 vccd1 vssd1 vccd1 vccd1 sky130_fd_pr__pfet_01v8_hvt ad=0p pd=0u as=0p ps=0u w=870000u l=590000u
X31 _164_.A0 a_34159_2223# vssd1 vssd1 sky130_fd_pr__nfet_01v8 ad=0p pd=0u as=0p ps=0u w=520000u
+ l=150000u
X32 a_28423_2999# _171_.B vccd1 vccd1 sky130_fd_pr__pfet_01v8_hvt ad=0p pd=0u as=0p ps=0u w=420000u
+ l=150000u
X33 a_2511_2767# _149_.A1 vccd1 vccd1 sky130_fd_pr__pfet_01v8_hvt ad=0p pd=0u as=0p ps=0u w=1e+06u
+ l=150000u
X34 vccd1 vssd1 vccd1 vccd1 sky130_fd_pr__pfet_01v8_hvt ad=0p pd=0u as=0p ps=0u w=870000u l=590000u
X35 vssd1 _160_.X a_27684_3133# vssd1 sky130_fd_pr__nfet_01v8 ad=0p pd=0u as=0p ps=0u w=420000u
+ l=150000u
X36 vccd1 vssd1 vccd1 vccd1 sky130_fd_pr__pfet_01v8_hvt ad=0p pd=0u as=0p ps=0u w=870000u
+ l=4.73e+06u
X37 vccd1 output29.A a_10147_7127# vccd1 sky130_fd_pr__pfet_01v8_hvt ad=0p pd=0u as=0p ps=0u
+ w=640000u l=150000u
X38 vssd1 vccd1 vssd1 vssd1 sky130_fd_pr__nfet_01v8 ad=0p pd=0u as=0p ps=0u w=550000u l=4.73e+06u
X39 a_35249_4399# _169_.X vccd1 vccd1 sky130_fd_pr__pfet_01v8_hvt ad=0p pd=0u as=0p ps=0u w=420000u
+ l=150000u
X40 vccd1 _129_.X a_25787_3855# vccd1 sky130_fd_pr__pfet_01v8_hvt ad=0p pd=0u as=0p ps=0u w=790000u
+ l=150000u
X41 a_33478_4511# a_33310_4765# vssd1 vssd1 sky130_fd_pr__nfet_01v8 ad=0p pd=0u as=0p ps=0u
+ w=640000u l=150000u
X42 a_5241_4399# a_4687_4373# a_4894_4373# vssd1 sky130_fd_pr__nfet_01v8 ad=0p pd=0u as=0p ps=0u
+ w=360000u l=150000u
X43 vssd1 vccd1 vssd1 vssd1 sky130_fd_pr__nfet_01v8 ad=0p pd=0u as=0p ps=0u w=550000u l=590000u
X44 vccd1 vssd1 vccd1 vccd1 sky130_fd_pr__pfet_01v8_hvt ad=0p pd=0u as=0p ps=0u w=870000u l=590000u
X45 vssd1 vccd1 vssd1 vssd1 sky130_fd_pr__nfet_01v8 ad=0p pd=0u as=0p ps=0u w=550000u l=1.97e+06u
X46 vccd1 vssd1 vccd1 vccd1 sky130_fd_pr__pfet_01v8_hvt ad=0p pd=0u as=0p ps=0u w=870000u
+ l=4.73e+06u
X47 a_16087_4373# a_16378_4673# a_16329_4765# vccd1 sky130_fd_pr__pfet_01v8_hvt ad=0p pd=0u as=0p
+ ps=0u w=420000u l=150000u
X48 vssd1 vccd1 vssd1 vssd1 sky130_fd_pr__nfet_01v8 ad=0p pd=0u as=0p ps=0u w=550000u l=1.05e+06u
X49 a_10483_5175# _196_.A a_10657_5281# vssd1 sky130_fd_pr__nfet_01v8 ad=0p pd=0u as=0p ps=0u
+ w=420000u l=150000u
X50 a_21454_4373# a_21247_4373# a_21630_4765# vccd1 sky130_fd_pr__pfet_01v8_hvt ad=0p pd=0u as=0p
+ ps=0u w=420000u l=150000u
X51 vssd1 vccd1 vssd1 vssd1 sky130_fd_pr__nfet_01v8 ad=0p pd=0u as=0p ps=0u w=550000u l=4.73e+06u
X52 vssd1 vccd1 vssd1 vssd1 sky130_fd_pr__nfet_01v8 ad=0p pd=0u as=0p ps=0u w=550000u l=4.73e+06u
X53 a_17995_4943# a_17213_4949# a_17911_4943# vccd1 sky130_fd_pr__pfet_01v8_hvt ad=0p pd=0u as=0p
+ ps=0u w=420000u l=150000u
X54 vssd1 a_13327_4373# _193_.X vssd1 sky130_fd_pr__nfet_01v8 ad=0p pd=0u as=0p ps=0u w=650000u
+ l=150000u
X55 a_14821_2589# a_14287_2223# a_14726_2589# vccd1 sky130_fd_pr__pfet_01v8_hvt ad=0p pd=0u as=0p
+ ps=0u w=420000u l=150000u
X56 a_15098_3677# a_14851_3311# vccd1 vccd1 sky130_fd_pr__pfet_01v8_hvt ad=0p pd=0u as=0p ps=0u
+ w=420000u l=150000u
X57 vccd1 vssd1 vccd1 vccd1 sky130_fd_pr__pfet_01v8_hvt ad=0p pd=0u as=0p ps=0u w=870000u l=590000u
X58 vssd1 vccd1 vssd1 vssd1 sky130_fd_pr__nfet_01v8 ad=0p pd=0u as=0p ps=0u w=550000u l=2.89e+06u
X59 a_35437_4175# ANTENNA__118__A.DIODE _125_.B1 vssd1 sky130_fd_pr__nfet_01v8 ad=0p pd=0u as=0p
+ ps=0u w=650000u l=150000u
X60 a_33386_3829# a_33218_3855# vssd1 vssd1 sky130_fd_pr__nfet_01v8 ad=0p pd=0u as=0p ps=0u
+ w=640000u l=150000u
X61 vssd1 vccd1 vssd1 vssd1 sky130_fd_pr__nfet_01v8 ad=0p pd=0u as=0p ps=0u w=550000u l=1.05e+06u
X62 msb[13] a_5600_7093# vssd1 vssd1 sky130_fd_pr__nfet_01v8 ad=1.755e+11p pd=1.84e+06u as=0p ps=0u
+ w=650000u l=150000u
X63 vssd1 vccd1 vssd1 vssd1 sky130_fd_pr__nfet_01v8 ad=0p pd=0u as=0p ps=0u w=550000u l=4.73e+06u
X64 a_22069_2741# _215_.Q vssd1 vssd1 sky130_fd_pr__nfet_01v8 ad=0p pd=0u as=0p ps=0u w=650000u
+ l=150000u
X65 a_14851_3311# a_14722_3585# a_14431_3285# vssd1 sky130_fd_pr__nfet_01v8 ad=0p pd=0u as=0p ps=0u
+ w=360000u l=150000u
X66 vccd1 _180_.B a_15147_4427# vccd1 sky130_fd_pr__pfet_01v8_hvt ad=0p pd=0u as=0p ps=0u w=420000u
+ l=150000u
X67 vssd1 _159_.X a_20769_2806# vssd1 sky130_fd_pr__nfet_01v8 ad=0p pd=0u as=0p ps=0u w=420000u
+ l=150000u
X68 vssd1 vccd1 vssd1 vssd1 sky130_fd_pr__nfet_01v8 ad=0p pd=0u as=0p ps=0u w=550000u l=1.05e+06u
X69 a_6725_2223# a_6559_2223# vssd1 vssd1 sky130_fd_pr__nfet_01v8 ad=0p pd=0u as=0p ps=0u w=420000u
+ l=150000u
X70 a_7534_2741# a_7366_2767# vccd1 vccd1 sky130_fd_pr__pfet_01v8_hvt ad=0p pd=0u as=0p ps=0u
+ w=750000u l=150000u
X71 vssd1 a_23478_3855# _209_.CLK vssd1 sky130_fd_pr__nfet_01v8 ad=0p pd=0u as=0p ps=0u w=420000u
+ l=150000u
X72 vccd1 vssd1 vccd1 vccd1 sky130_fd_pr__pfet_01v8_hvt ad=0p pd=0u as=0p ps=0u w=870000u
+ l=4.73e+06u
X73 vccd1 dac_in[0] a_36091_2223# vccd1 sky130_fd_pr__pfet_01v8_hvt ad=0p pd=0u as=0p ps=0u
+ w=790000u l=150000u
X74 vccd1 vssd1 vccd1 vccd1 sky130_fd_pr__pfet_01v8_hvt ad=0p pd=0u as=0p ps=0u w=870000u
+ l=2.89e+06u
X75 _160_.X a_19623_3311# vccd1 vccd1 sky130_fd_pr__pfet_01v8_hvt ad=0p pd=0u as=0p ps=0u w=1e+06u
+ l=150000u
X76 output23.A output17.A vssd1 vssd1 sky130_fd_pr__nfet_01v8 ad=0p pd=0u as=0p ps=0u w=420000u
+ l=150000u
X77 vccd1 vssd1 vccd1 vccd1 sky130_fd_pr__pfet_01v8_hvt ad=0p pd=0u as=0p ps=0u w=870000u
+ l=1.05e+06u
X78 a_33037_4399# a_32871_4399# vccd1 vccd1 sky130_fd_pr__pfet_01v8_hvt ad=0p pd=0u as=0p ps=0u
+ w=640000u l=150000u
X79 _128_.B1 a_27463_3579# vssd1 vssd1 sky130_fd_pr__nfet_01v8 ad=0p pd=0u as=0p ps=0u w=650000u
+ l=150000u
X80 _155_.B1 a_2869_3087# vssd1 vssd1 sky130_fd_pr__nfet_01v8 ad=0p pd=0u as=0p ps=0u w=650000u
+ l=150000u
X81 _232_.CLK a_13069_3829# vccd1 vccd1 sky130_fd_pr__pfet_01v8_hvt ad=0p pd=0u as=0p ps=0u w=1e+06u
+ l=150000u
X82 a_26300_6549# _094_.Y vccd1 vccd1 sky130_fd_pr__pfet_01v8_hvt ad=0p pd=0u as=0p ps=0u w=640000u
+ l=150000u
X83 vccd1 a_34944_2375# _168_.B vccd1 sky130_fd_pr__pfet_01v8_hvt ad=0p pd=0u as=0p ps=0u w=1e+06u
+ l=150000u
X84 _183_.A1 a_9799_2741# vssd1 vssd1 sky130_fd_pr__nfet_01v8 ad=0p pd=0u as=0p ps=0u w=650000u
+ l=150000u
X85 _133_.A _121_.A vssd1 vssd1 sky130_fd_pr__nfet_01v8 ad=0p pd=0u as=0p ps=0u w=420000u l=150000u
X86 vssd1 vccd1 vssd1 vssd1 sky130_fd_pr__nfet_01v8 ad=0p pd=0u as=0p ps=0u w=550000u l=1.05e+06u
X87 a_21630_4765# a_21383_4399# vccd1 vccd1 sky130_fd_pr__pfet_01v8_hvt ad=0p pd=0u as=0p ps=0u
+ w=420000u l=150000u
X88 a_35334_4765# a_34895_4399# a_35249_4399# vssd1 sky130_fd_pr__nfet_01v8 ad=0p pd=0u as=0p ps=0u
+ w=360000u l=150000u
X89 vccd1 ANTENNA__177__A.DIODE a_19106_3855# vccd1 sky130_fd_pr__pfet_01v8_hvt ad=0p pd=0u as=0p
+ ps=0u w=420000u l=150000u
X90 a_35307_2223# input3.X a_34944_2375# vssd1 sky130_fd_pr__nfet_01v8 ad=0p pd=0u as=0p ps=0u
+ w=420000u l=150000u
X91 vccd1 output19.A output25.A vccd1 sky130_fd_pr__pfet_01v8_hvt ad=0p pd=0u as=0p ps=0u w=1e+06u
+ l=150000u
X92 vssd1 vccd1 vssd1 vssd1 sky130_fd_pr__nfet_01v8 ad=0p pd=0u as=0p ps=0u w=550000u l=1.97e+06u
X93 vccd1 a_29154_3829# a_29081_3855# vccd1 sky130_fd_pr__pfet_01v8_hvt ad=0p pd=0u as=0p ps=0u
+ w=420000u l=150000u
X94 vccd1 vssd1 vccd1 vccd1 sky130_fd_pr__pfet_01v8_hvt ad=0p pd=0u as=0p ps=0u w=870000u
+ l=1.05e+06u
X95 vccd1 vssd1 vccd1 vccd1 sky130_fd_pr__pfet_01v8_hvt ad=0p pd=0u as=0p ps=0u w=870000u
+ l=4.73e+06u
X96 a_10936_7093# output59.A vssd1 vssd1 sky130_fd_pr__nfet_01v8 ad=0p pd=0u as=0p ps=0u w=420000u
+ l=150000u
X97 a_14115_5321# a_13979_5161# a_13695_5175# vccd1 sky130_fd_pr__pfet_01v8_hvt ad=0p pd=0u as=0p
+ ps=0u w=420000u l=150000u
X98 vccd1 a_4307_4551# output30.A vccd1 sky130_fd_pr__pfet_01v8_hvt ad=0p pd=0u as=0p ps=0u w=1e+06u
+ l=150000u
X99 a_17965_4649# _205_.A1 vccd1 vccd1 sky130_fd_pr__pfet_01v8_hvt ad=0p pd=0u as=0p ps=0u w=1e+06u
+ l=150000u
X100 vccd1 vssd1 vccd1 vccd1 sky130_fd_pr__pfet_01v8_hvt ad=0p pd=0u as=0p ps=0u w=870000u
+ l=4.73e+06u
X101 vccd1 vssd1 vccd1 vccd1 sky130_fd_pr__pfet_01v8_hvt ad=0p pd=0u as=0p ps=0u w=870000u
+ l=4.73e+06u
X102 vssd1 a_10943_4373# a_10950_4673# vssd1 sky130_fd_pr__nfet_01v8 ad=0p pd=0u as=0p ps=0u
+ w=420000u l=150000u
X103 vccd1 a_27590_4511# a_27517_4765# vccd1 sky130_fd_pr__pfet_01v8_hvt ad=0p pd=0u as=0p ps=0u
+ w=420000u l=150000u
X104 vccd1 vssd1 vccd1 vccd1 sky130_fd_pr__pfet_01v8_hvt ad=0p pd=0u as=0p ps=0u w=870000u
+ l=1.97e+06u
X105 msb[10] a_10147_7127# vccd1 vccd1 sky130_fd_pr__pfet_01v8_hvt ad=2.7e+11p pd=2.54e+06u as=0p
+ ps=0u w=1e+06u l=150000u
X106 vccd1 output41.A output57.A vccd1 sky130_fd_pr__pfet_01v8_hvt ad=0p pd=0u as=0p ps=0u w=1e+06u
+ l=150000u
X107 a_25030_2589# a_24591_2223# a_24945_2223# vssd1 sky130_fd_pr__nfet_01v8 ad=0p pd=0u as=0p ps=0u
+ w=360000u l=150000u
X108 clkbuf_2_3__f_clk.A a_20442_3311# vssd1 vssd1 sky130_fd_pr__nfet_01v8 ad=0p pd=0u as=0p ps=0u
+ w=420000u l=150000u
X109 vccd1 a_22983_2375# _140_.A_N vccd1 sky130_fd_pr__pfet_01v8_hvt ad=0p pd=0u as=0p ps=0u
+ w=1e+06u l=150000u
X110 vssd1 a_23478_2767# _222_.CLK vssd1 sky130_fd_pr__nfet_01v8 ad=0p pd=0u as=0p ps=0u w=420000u
+ l=150000u
X111 vssd1 vccd1 vssd1 vssd1 sky130_fd_pr__nfet_01v8 ad=0p pd=0u as=0p ps=0u w=550000u l=1.05e+06u
X112 a_17486_4943# a_17047_4949# a_17401_4943# vssd1 sky130_fd_pr__nfet_01v8 ad=0p pd=0u as=0p ps=0u
+ w=360000u l=150000u
X113 a_4894_4373# a_4687_4373# a_5070_4765# vccd1 sky130_fd_pr__pfet_01v8_hvt ad=0p pd=0u as=0p
+ ps=0u w=420000u l=150000u
X114 a_30550_3311# a_30373_3311# vccd1 vccd1 sky130_fd_pr__pfet_01v8_hvt ad=0p pd=0u as=0p ps=0u
+ w=1e+06u l=150000u
X115 vssd1 vccd1 vssd1 vssd1 sky130_fd_pr__nfet_01v8 ad=0p pd=0u as=0p ps=0u w=550000u l=1.05e+06u
X116 a_25539_2589# a_24757_2223# a_25455_2589# vccd1 sky130_fd_pr__pfet_01v8_hvt ad=0p pd=0u as=0p
+ ps=0u w=420000u l=150000u
X117 _209_.CLK a_23478_3855# vccd1 vccd1 sky130_fd_pr__pfet_01v8_hvt ad=0p pd=0u as=0p ps=0u
+ w=1e+06u l=150000u
X118 vccd1 vssd1 vccd1 vccd1 sky130_fd_pr__pfet_01v8_hvt ad=0p pd=0u as=0p ps=0u w=870000u
+ l=1.97e+06u
X119 a_33309_3145# a_32319_2773# a_33183_2767# vssd1 sky130_fd_pr__nfet_01v8 ad=0p pd=0u as=0p ps=0u
+ w=360000u l=150000u
X120 a_36417_2806# input1.X a_36203_2806# vccd1 sky130_fd_pr__pfet_01v8_hvt ad=0p pd=0u as=0p ps=0u
+ w=420000u l=150000u
X121 vccd1 a_16911_2986# _183_.A0 vccd1 sky130_fd_pr__pfet_01v8_hvt ad=0p pd=0u as=0p ps=0u
+ w=790000u l=150000u
X122 _233_.CLK a_13069_2741# vccd1 vccd1 sky130_fd_pr__pfet_01v8_hvt ad=0p pd=0u as=0p ps=0u
+ w=1e+06u l=150000u
X123 clkbuf_2_3__f_clk.A a_20442_3311# vccd1 vccd1 sky130_fd_pr__pfet_01v8_hvt ad=0p pd=0u as=0p
+ ps=0u w=1e+06u l=150000u
X124 a_26300_6549# _094_.Y vssd1 vssd1 sky130_fd_pr__nfet_01v8 ad=0p pd=0u as=0p ps=0u w=420000u
+ l=150000u
X125 vccd1 a_15151_2589# a_15319_2491# vccd1 sky130_fd_pr__pfet_01v8_hvt ad=0p pd=0u as=0p ps=0u
+ w=1e+06u l=150000u
X126 a_29081_3855# a_28547_3861# a_28986_3855# vccd1 sky130_fd_pr__pfet_01v8_hvt ad=0p pd=0u as=0p
+ ps=0u w=420000u l=150000u
X127 a_23005_5321# a_22015_4949# a_22879_4943# vssd1 sky130_fd_pr__nfet_01v8 ad=0p pd=0u as=0p ps=0u
+ w=360000u l=150000u
X128 vssd1 _134_.X a_31369_2223# vssd1 sky130_fd_pr__nfet_01v8 ad=0p pd=0u as=0p ps=0u w=420000u
+ l=150000u
X129 a_15398_3894# _159_.X vccd1 vccd1 sky130_fd_pr__pfet_01v8_hvt ad=0p pd=0u as=0p ps=0u w=420000u
+ l=150000u
X130 a_35460_4399# a_35061_4399# a_35334_4765# vssd1 sky130_fd_pr__nfet_01v8 ad=0p pd=0u as=0p ps=0u
+ w=360000u l=150000u
X131 vccd1 output20.A a_31215_7127# vccd1 sky130_fd_pr__pfet_01v8_hvt ad=0p pd=0u as=0p ps=0u
+ w=640000u l=150000u
X132 vssd1 vccd1 vssd1 vssd1 sky130_fd_pr__nfet_01v8 ad=0p pd=0u as=0p ps=0u w=550000u l=4.73e+06u
X133 a_15269_3311# a_14715_3285# a_14922_3285# vssd1 sky130_fd_pr__nfet_01v8 ad=0p pd=0u as=0p ps=0u
+ w=360000u l=150000u
X134 vssd1 vccd1 vssd1 vssd1 sky130_fd_pr__nfet_01v8 ad=0p pd=0u as=0p ps=0u w=550000u l=2.89e+06u
X135 vssd1 _149_.A2 a_8296_4399# vssd1 sky130_fd_pr__nfet_01v8 ad=0p pd=0u as=0p ps=0u w=650000u
+ l=150000u
X136 a_15269_3311# a_14722_3585# a_14922_3285# vccd1 sky130_fd_pr__pfet_01v8_hvt ad=0p pd=0u as=0p
+ ps=0u w=420000u l=150000u
X137 vssd1 a_28142_4917# a_28100_5321# vssd1 sky130_fd_pr__nfet_01v8 ad=0p pd=0u as=0p ps=0u
+ w=420000u l=150000u
X138 a_28107_2550# input4.X a_28107_2223# vssd1 sky130_fd_pr__nfet_01v8 ad=0p pd=0u as=0p ps=0u
+ w=420000u l=150000u
X139 _232_.CLK a_13069_3829# vssd1 vssd1 sky130_fd_pr__nfet_01v8 ad=0p pd=0u as=0p ps=0u w=420000u
+ l=150000u
X140 vssd1 vccd1 vssd1 vssd1 sky130_fd_pr__nfet_01v8 ad=0p pd=0u as=0p ps=0u w=550000u l=590000u
X141 a_21801_4399# a_21254_4673# a_21454_4373# vccd1 sky130_fd_pr__pfet_01v8_hvt ad=0p pd=0u as=0p
+ ps=0u w=420000u l=150000u
X142 a_21182_4399# a_20867_4551# vssd1 vssd1 sky130_fd_pr__nfet_01v8 ad=0p pd=0u as=0p ps=0u
+ w=420000u l=150000u
X143 a_18015_2806# _144_.A1 a_17556_2999# vccd1 sky130_fd_pr__pfet_01v8_hvt ad=0p pd=0u as=0p ps=0u
+ w=420000u l=150000u
X144 a_4772_7093# output48.A vccd1 vccd1 sky130_fd_pr__pfet_01v8_hvt ad=0p pd=0u as=0p ps=0u
+ w=640000u l=150000u
X145 a_5070_4765# a_4823_4399# vccd1 vccd1 sky130_fd_pr__pfet_01v8_hvt ad=0p pd=0u as=0p ps=0u
+ w=420000u l=150000u
X146 vssd1 a_20867_4551# output38.A vssd1 sky130_fd_pr__nfet_01v8 ad=0p pd=0u as=0p ps=0u w=650000u
+ l=150000u
X147 a_25156_2223# a_24757_2223# a_25030_2589# vssd1 sky130_fd_pr__nfet_01v8 ad=0p pd=0u as=0p ps=0u
+ w=360000u l=150000u
X148 vssd1 a_8307_7127# msb[11] vssd1 sky130_fd_pr__nfet_01v8 ad=0p pd=0u as=1.755e+11p ps=1.84e+06u
+ w=650000u l=150000u
X149 vccd1 vssd1 vccd1 vccd1 sky130_fd_pr__pfet_01v8_hvt ad=0p pd=0u as=0p ps=0u w=870000u
+ l=1.05e+06u
X150 vccd1 a_9631_2767# a_9799_2741# vccd1 sky130_fd_pr__pfet_01v8_hvt ad=0p pd=0u as=0p ps=0u
+ w=1e+06u l=150000u
X151 a_16403_3311# _206_.A2 a_16309_3311# vssd1 sky130_fd_pr__nfet_01v8 ad=0p pd=0u as=0p ps=0u
+ w=650000u l=150000u
X152 vccd1 a_22069_2741# _140_.C vccd1 sky130_fd_pr__pfet_01v8_hvt ad=0p pd=0u as=0p ps=0u w=1e+06u
+ l=150000u
X153 vccd1 a_7539_4073# a_7546_3977# vccd1 sky130_fd_pr__pfet_01v8_hvt ad=0p pd=0u as=0p ps=0u
+ w=640000u l=150000u
X154 vccd1 vssd1 vccd1 vccd1 sky130_fd_pr__pfet_01v8_hvt ad=0p pd=0u as=0p ps=0u w=870000u
+ l=1.05e+06u
X155 vssd1 vccd1 vssd1 vssd1 sky130_fd_pr__nfet_01v8 ad=0p pd=0u as=0p ps=0u w=550000u l=1.05e+06u
X156 a_17612_5321# a_17213_4949# a_17486_4943# vssd1 sky130_fd_pr__nfet_01v8 ad=0p pd=0u as=0p ps=0u
+ w=360000u l=150000u
X157 a_22983_2375# _135_.X vccd1 vccd1 sky130_fd_pr__pfet_01v8_hvt ad=0p pd=0u as=0p ps=0u w=420000u
+ l=150000u
X158 _222_.CLK a_23478_2767# vccd1 vccd1 sky130_fd_pr__pfet_01v8_hvt ad=0p pd=0u as=0p ps=0u
+ w=1e+06u l=150000u
X159 vssd1 vccd1 vssd1 vssd1 sky130_fd_pr__nfet_01v8 ad=0p pd=0u as=0p ps=0u w=550000u l=590000u
X160 vccd1 _121_.A _133_.A vccd1 sky130_fd_pr__pfet_01v8_hvt ad=0p pd=0u as=0p ps=0u w=1e+06u
+ l=150000u
X161 a_7675_4233# a_7546_3977# a_7255_4087# vssd1 sky130_fd_pr__nfet_01v8 ad=0p pd=0u as=0p ps=0u
+ w=360000u l=150000u
X162 vccd1 vssd1 vccd1 vccd1 sky130_fd_pr__pfet_01v8_hvt ad=0p pd=0u as=0p ps=0u w=870000u
+ l=1.05e+06u
D0 vssd1 _133_.A sky130_fd_pr__diode_pw2nd_05v5 pj=2.64e+06 area=4.347e+11
X163 vccd1 vssd1 vccd1 vccd1 sky130_fd_pr__pfet_01v8_hvt ad=0p pd=0u as=0p ps=0u w=870000u
+ l=1.05e+06u
X164 vccd1 a_29801_2999# a_29614_2741# vccd1 sky130_fd_pr__pfet_01v8_hvt ad=0p pd=0u as=0p ps=0u
+ w=1e+06u l=150000u
X165 _159_.A a_1591_2223# vssd1 vssd1 sky130_fd_pr__nfet_01v8 ad=0p pd=0u as=0p ps=0u w=520000u
+ l=150000u
X166 vssd1 a_14563_7127# msb_n[7] vssd1 sky130_fd_pr__nfet_01v8 ad=0p pd=0u as=1.755e+11p
+ ps=1.84e+06u w=650000u l=150000u
X167 vccd1 a_15991_4551# output40.A vccd1 sky130_fd_pr__pfet_01v8_hvt ad=0p pd=0u as=0p ps=0u
+ w=1e+06u l=150000u
X168 vccd1 vssd1 vccd1 vccd1 sky130_fd_pr__pfet_01v8_hvt ad=0p pd=0u as=0p ps=0u w=870000u
+ l=4.73e+06u
X169 vccd1 vssd1 vccd1 vccd1 sky130_fd_pr__pfet_01v8_hvt ad=0p pd=0u as=0p ps=0u w=870000u
+ l=1.05e+06u
X170 _114_.Y output20.A vccd1 vccd1 sky130_fd_pr__pfet_01v8_hvt ad=0p pd=0u as=0p ps=0u w=1e+06u
+ l=150000u
X171 a_11762_4087# a_11858_3829# vccd1 vccd1 sky130_fd_pr__pfet_01v8_hvt ad=0p pd=0u as=0p ps=0u
+ w=420000u l=150000u
X172 a_37703_4564# _157_.A vssd1 vssd1 sky130_fd_pr__nfet_01v8 ad=0p pd=0u as=0p ps=0u w=520000u
+ l=150000u
X173 vssd1 vccd1 vssd1 vssd1 sky130_fd_pr__nfet_01v8 ad=0p pd=0u as=0p ps=0u w=550000u l=1.05e+06u
X174 vccd1 vssd1 vccd1 vccd1 sky130_fd_pr__pfet_01v8_hvt ad=0p pd=0u as=0p ps=0u w=870000u
+ l=4.73e+06u
X175 vccd1 a_22067_2197# _137_.X vccd1 sky130_fd_pr__pfet_01v8_hvt ad=0p pd=0u as=0p ps=0u w=1e+06u
+ l=150000u
D1 vssd1 dac_in[5] sky130_fd_pr__diode_pw2nd_05v5 pj=2.64e+06 area=4.347e+11
X176 a_21023_2806# input6.X a_21023_3133# vssd1 sky130_fd_pr__nfet_01v8 ad=0p pd=0u as=0p ps=0u
+ w=420000u l=150000u
X177 vccd1 clkbuf_2_3__f_clk.A a_13069_3829# vccd1 sky130_fd_pr__pfet_01v8_hvt ad=0p pd=0u as=0p
+ ps=0u w=1e+06u l=150000u
X178 vccd1 vssd1 vccd1 vccd1 sky130_fd_pr__pfet_01v8_hvt ad=0p pd=0u as=0p ps=0u w=870000u
+ l=4.73e+06u
X179 vccd1 a_29796_7093# lsb_n[4] vccd1 sky130_fd_pr__pfet_01v8_hvt ad=0p pd=0u as=2.7e+11p
+ ps=2.54e+06u w=1e+06u l=150000u
X180 vccd1 a_13069_2741# _233_.CLK vccd1 sky130_fd_pr__pfet_01v8_hvt ad=0p pd=0u as=0p ps=0u
+ w=1e+06u l=150000u
X181 a_16180_3285# _180_.X a_16309_3561# vccd1 sky130_fd_pr__pfet_01v8_hvt ad=0p pd=0u as=0p ps=0u
+ w=1e+06u l=150000u
X182 vccd1 vssd1 vccd1 vccd1 sky130_fd_pr__pfet_01v8_hvt ad=0p pd=0u as=0p ps=0u w=870000u
+ l=1.97e+06u
X183 vssd1 a_36236_6549# lsb_n[0] vssd1 sky130_fd_pr__nfet_01v8 ad=0p pd=0u as=1.755e+11p
+ ps=1.84e+06u w=650000u l=150000u
X184 _136_.Y _133_.A vssd1 vssd1 sky130_fd_pr__nfet_01v8 ad=0p pd=0u as=0p ps=0u w=650000u l=150000u
X185 vssd1 a_25198_2335# a_25156_2223# vssd1 sky130_fd_pr__nfet_01v8 ad=0p pd=0u as=0p ps=0u
+ w=420000u l=150000u
X186 output50.A output34.A vssd1 vssd1 sky130_fd_pr__nfet_01v8 ad=0p pd=0u as=0p ps=0u w=650000u
+ l=150000u
X187 a_7791_2767# a_6927_2773# a_7534_2741# vccd1 sky130_fd_pr__pfet_01v8_hvt ad=0p pd=0u as=0p
+ ps=0u w=420000u l=150000u
X188 vssd1 a_13979_5161# a_13986_5065# vssd1 sky130_fd_pr__nfet_01v8 ad=0p pd=0u as=0p ps=0u
+ w=420000u l=150000u
X189 a_31022_2197# a_30815_2197# a_31198_2589# vccd1 sky130_fd_pr__pfet_01v8_hvt ad=0p pd=0u as=0p
+ ps=0u w=420000u l=150000u
X190 vccd1 vssd1 vccd1 vccd1 sky130_fd_pr__pfet_01v8_hvt ad=0p pd=0u as=0p ps=0u w=870000u
+ l=2.89e+06u
X191 vccd1 vssd1 vccd1 vccd1 sky130_fd_pr__pfet_01v8_hvt ad=0p pd=0u as=0p ps=0u w=870000u
+ l=1.05e+06u
X192 _235_.D a_20070_4399# vccd1 vccd1 sky130_fd_pr__pfet_01v8_hvt ad=0p pd=0u as=0p ps=0u w=1e+06u
+ l=150000u
X193 a_35007_2806# _125_.A2 a_34935_2806# vccd1 sky130_fd_pr__pfet_01v8_hvt ad=0p pd=0u as=0p ps=0u
+ w=420000u l=150000u
X194 vssd1 a_7534_2741# a_7492_3145# vssd1 sky130_fd_pr__nfet_01v8 ad=0p pd=0u as=0p ps=0u w=420000u
+ l=150000u
X195 a_23431_3677# a_22733_3311# a_23174_3423# vssd1 sky130_fd_pr__nfet_01v8 ad=0p pd=0u as=0p ps=0u
+ w=360000u l=150000u
X196 vssd1 _172_.A a_26431_3855# vssd1 sky130_fd_pr__nfet_01v8 ad=0p pd=0u as=0p ps=0u w=520000u
+ l=150000u
X197 vccd1 vssd1 vccd1 vccd1 sky130_fd_pr__pfet_01v8_hvt ad=0p pd=0u as=0p ps=0u w=870000u
+ l=1.05e+06u
X198 a_7331_3677# a_6633_3311# a_7074_3423# vssd1 sky130_fd_pr__nfet_01v8 ad=0p pd=0u as=0p ps=0u
+ w=360000u l=150000u
X199 vssd1 _196_.B a_12160_5263# vssd1 sky130_fd_pr__nfet_01v8 ad=0p pd=0u as=0p ps=0u w=650000u
+ l=150000u
X200 vccd1 vssd1 vccd1 vccd1 sky130_fd_pr__pfet_01v8_hvt ad=0p pd=0u as=0p ps=0u w=870000u
+ l=1.05e+06u
X201 msb[3] a_22804_7093# vccd1 vccd1 sky130_fd_pr__pfet_01v8_hvt ad=2.7e+11p pd=2.54e+06u as=0p
+ ps=0u w=1e+06u l=150000u
X202 lsb[4] a_31215_7127# vccd1 vccd1 sky130_fd_pr__pfet_01v8_hvt ad=2.7e+11p pd=2.54e+06u as=0p
+ ps=0u w=1e+06u l=150000u
D2 vssd1 rst_n sky130_fd_pr__diode_pw2nd_05v5 pj=2.64e+06 area=4.347e+11
X203 vssd1 a_26063_7127# msb[1] vssd1 sky130_fd_pr__nfet_01v8 ad=0p pd=0u as=1.755e+11p ps=1.84e+06u
+ w=650000u l=150000u
X204 vccd1 _133_.A a_30469_4649# vccd1 sky130_fd_pr__pfet_01v8_hvt ad=0p pd=0u as=0p ps=0u w=1e+06u
+ l=150000u
X205 _205_.A1 a_19106_3855# vccd1 vccd1 sky130_fd_pr__pfet_01v8_hvt ad=0p pd=0u as=0p ps=0u w=1e+06u
+ l=150000u
X206 lsb_n[4] a_29796_7093# vssd1 vssd1 sky130_fd_pr__nfet_01v8 ad=1.755e+11p pd=1.84e+06u as=0p
+ ps=0u w=650000u l=150000u
X207 vssd1 vccd1 vssd1 vssd1 sky130_fd_pr__nfet_01v8 ad=0p pd=0u as=0p ps=0u w=550000u l=1.05e+06u
X208 vssd1 _196_.A a_7081_4399# vssd1 sky130_fd_pr__nfet_01v8 ad=0p pd=0u as=0p ps=0u w=420000u
+ l=150000u
X209 vccd1 _135_.A a_17743_2197# vccd1 sky130_fd_pr__pfet_01v8_hvt ad=0p pd=0u as=0p ps=0u w=420000u
+ l=150000u
X210 a_33225_4399# _157_.X vccd1 vccd1 sky130_fd_pr__pfet_01v8_hvt ad=0p pd=0u as=0p ps=0u w=420000u
+ l=150000u
X211 vccd1 a_14186_5220# a_14115_5321# vccd1 sky130_fd_pr__pfet_01v8_hvt ad=0p pd=0u as=0p ps=0u
+ w=750000u l=150000u
X212 vccd1 vssd1 vccd1 vccd1 sky130_fd_pr__pfet_01v8_hvt ad=0p pd=0u as=0p ps=0u w=870000u l=590000u
X213 a_31171_2223# a_30951_2223# vssd1 vssd1 sky130_fd_pr__nfet_01v8 ad=0p pd=0u as=0p ps=0u
+ w=420000u l=150000u
X214 vssd1 a_13069_3829# _232_.CLK vssd1 sky130_fd_pr__nfet_01v8 ad=0p pd=0u as=0p ps=0u w=420000u
+ l=150000u
X215 vccd1 _203_.A2 a_19257_4943# vccd1 sky130_fd_pr__pfet_01v8_hvt ad=0p pd=0u as=0p ps=0u w=1e+06u
+ l=150000u
X216 vccd1 ANTENNA__177__A.DIODE a_27215_4087# vccd1 sky130_fd_pr__pfet_01v8_hvt ad=0p pd=0u as=0p
+ ps=0u w=420000u l=150000u
X217 vccd1 vssd1 vccd1 vccd1 sky130_fd_pr__pfet_01v8_hvt ad=0p pd=0u as=0p ps=0u w=870000u
+ l=1.05e+06u
X218 vssd1 a_33108_7093# lsb_n[2] vssd1 sky130_fd_pr__nfet_01v8 ad=0p pd=0u as=1.755e+11p
+ ps=1.84e+06u w=650000u l=150000u
X219 output48.A output32.A vssd1 vssd1 sky130_fd_pr__nfet_01v8 ad=0p pd=0u as=0p ps=0u w=420000u
+ l=150000u
X220 vssd1 vccd1 vssd1 vssd1 sky130_fd_pr__nfet_01v8 ad=0p pd=0u as=0p ps=0u w=550000u l=1.05e+06u
X221 vssd1 vccd1 vssd1 vssd1 sky130_fd_pr__nfet_01v8 ad=0p pd=0u as=0p ps=0u w=550000u l=2.89e+06u
X222 vccd1 a_32747_5161# a_32754_5065# vccd1 sky130_fd_pr__pfet_01v8_hvt ad=0p pd=0u as=0p ps=0u
+ w=640000u l=150000u
X223 vssd1 vccd1 vssd1 vssd1 sky130_fd_pr__nfet_01v8 ad=0p pd=0u as=0p ps=0u w=550000u l=1.97e+06u
X224 a_20446_2223# a_20131_2375# vssd1 vssd1 sky130_fd_pr__nfet_01v8 ad=0p pd=0u as=0p ps=0u
+ w=420000u l=150000u
X225 vssd1 a_38023_6039# llsb vssd1 sky130_fd_pr__nfet_01v8 ad=0p pd=0u as=1.755e+11p ps=1.84e+06u
+ w=650000u l=150000u
X226 a_7166_2335# a_6998_2589# vccd1 vccd1 sky130_fd_pr__pfet_01v8_hvt ad=0p pd=0u as=0p ps=0u
+ w=750000u l=150000u
X227 vssd1 vccd1 vssd1 vssd1 sky130_fd_pr__nfet_01v8 ad=0p pd=0u as=0p ps=0u w=550000u l=590000u
X228 vssd1 vccd1 vssd1 vssd1 sky130_fd_pr__nfet_01v8 ad=0p pd=0u as=0p ps=0u w=550000u l=590000u
X229 a_16911_2986# dac_in[7] vssd1 vssd1 sky130_fd_pr__nfet_01v8 ad=0p pd=0u as=0p ps=0u w=520000u
+ l=150000u
X230 vssd1 a_15151_2589# a_15319_2491# vssd1 sky130_fd_pr__nfet_01v8 ad=0p pd=0u as=0p ps=0u
+ w=650000u l=150000u
X231 vssd1 _209_.CLK a_27535_4949# vssd1 sky130_fd_pr__nfet_01v8 ad=0p pd=0u as=0p ps=0u w=420000u
+ l=150000u
X232 vssd1 vccd1 vssd1 vssd1 sky130_fd_pr__nfet_01v8 ad=0p pd=0u as=0p ps=0u w=550000u l=1.97e+06u
X233 a_13069_3829# clkbuf_2_3__f_clk.A vccd1 vccd1 sky130_fd_pr__pfet_01v8_hvt ad=0p pd=0u as=0p
+ ps=0u w=1e+06u l=150000u
X234 msb[7] a_15299_7127# vccd1 vccd1 sky130_fd_pr__pfet_01v8_hvt ad=2.7e+11p pd=2.54e+06u as=0p
+ ps=0u w=1e+06u l=150000u
X235 vssd1 vccd1 vssd1 vssd1 sky130_fd_pr__nfet_01v8 ad=0p pd=0u as=0p ps=0u w=550000u l=4.73e+06u
X236 a_5687_3463# ANTENNA__177__A.DIODE a_5921_3311# vssd1 sky130_fd_pr__nfet_01v8 ad=0p pd=0u as=0p
+ ps=0u w=420000u l=150000u
X237 output53.A output37.A vssd1 vssd1 sky130_fd_pr__nfet_01v8 ad=0p pd=0u as=0p ps=0u w=420000u
+ l=150000u
X238 vccd1 _162_.B a_36399_4193# vccd1 sky130_fd_pr__pfet_01v8_hvt ad=0p pd=0u as=0p ps=0u w=420000u
+ l=150000u
X239 a_27956_7093# _115_.Y vccd1 vccd1 sky130_fd_pr__pfet_01v8_hvt ad=0p pd=0u as=0p ps=0u w=640000u
+ l=150000u
X240 vccd1 vssd1 vccd1 vccd1 sky130_fd_pr__pfet_01v8_hvt ad=0p pd=0u as=0p ps=0u w=870000u
+ l=1.05e+06u