v {xschem version=3.1.0 file_version=1.2
}
G {}
K {}
V {}
S {}
E {}
C {devices/code_shown.sym} 50 -70 0 0 {name=s1 only_toplevel=false value="* NGSPICE file created from sarcon_sync_flat.ext - technology: sky130A
* NGSPICE file created from sarcon_sync_flat_1.ext - technology: sky130A

.subckt sarcon_sync_flat_1 clk comp dq[0] dq[1] dq[2] dq[3] dq[4] dq[5] dq[6] dq[7]
+ last_cycle rst_n valid vccd1 vssd1
X0 a_12283_4726# _31_.A0 a_12283_4399# vssd1 sky130_fd_pr__nfet_01v8 ad=0p pd=0u as=0p ps=0u w=420000u l=150000u
X1 _54_.CLK a_9494_2767# vccd1 vccd1 sky130_fd_pr__pfet_01v8_hvt ad=0p pd=0u as=1.1892e+14p ps=1.17526e+09u w=1e+06u l=150000u
X2 a_5322_2741# a_5172_2767# vccd1 vccd1 sky130_fd_pr__pfet_01v8_hvt ad=0p pd=0u as=0p ps=0u w=840000u l=150000u
X3 vccd1 a_6700_5175# _43_.X vccd1 sky130_fd_pr__pfet_01v8_hvt ad=0p pd=0u as=0p ps=0u w=1e+06u l=150000u
X4 vssd1 a_4043_4373# _52_.RESET_B vssd1 sky130_fd_pr__nfet_01v8 ad=8.07775e+13p pd=8.5953e+08u as=0p ps=0u w=420000u l=150000u
X5 a_4680_2223# _45_.X vccd1 vccd1 sky130_fd_pr__pfet_01v8_hvt ad=0p pd=0u as=0p ps=0u w=420000u l=150000u
X6 vssd1 a_9494_2767# _54_.CLK vssd1 sky130_fd_pr__nfet_01v8 ad=0p pd=0u as=0p ps=0u w=420000u l=150000u
X7 vssd1 a_9034_3855# clkbuf_0_clk.X vssd1 sky130_fd_pr__nfet_01v8 ad=0p pd=0u as=0p ps=0u w=420000u l=150000u
X8 output6.A a_15175_4159# vssd1 vssd1 sky130_fd_pr__nfet_01v8 ad=0p pd=0u as=0p ps=0u w=650000u l=150000u
X9 a_7458_2899# a_7775_3009# a_7733_3133# vssd1 sky130_fd_pr__nfet_01v8 ad=0p pd=0u as=0p ps=0u w=360000u l=150000u
X10 _29_.A a_5742_2767# vssd1 vssd1 sky130_fd_pr__nfet_01v8 ad=0p pd=0u as=0p ps=0u w=650000u l=150000u
X11 a_5436_3133# a_5322_2741# a_5364_3133# vssd1 sky130_fd_pr__nfet_01v8 ad=0p pd=0u as=0p ps=0u w=420000u l=150000u
X12 _32_.X a_12856_5737# vccd1 vccd1 sky130_fd_pr__pfet_01v8_hvt ad=0p pd=0u as=0p ps=0u w=1e+06u l=150000u
X13 vssd1 a_16727_4564# _30_.X vssd1 sky130_fd_pr__nfet_01v8 ad=0p pd=0u as=0p ps=0u w=520000u l=150000u
X14 vssd1 hold1.X a_2235_3855# vssd1 sky130_fd_pr__nfet_01v8 ad=0p pd=0u as=0p ps=0u w=520000u l=150000u
X15 vccd1 a_2764_2223# a_2939_2197# vccd1 sky130_fd_pr__pfet_01v8_hvt ad=0p pd=0u as=0p ps=0u w=420000u l=150000u
X16 a_2997_3133# a_2618_2767# a_2925_3133# vssd1 sky130_fd_pr__nfet_01v8 ad=0p pd=0u as=0p ps=0u w=420000u l=150000u
X17 vccd1 vssd1 vccd1 vccd1 sky130_fd_pr__pfet_01v8_hvt ad=0p pd=0u as=0p ps=0u w=870000u l=1.05e+06u
X18 a_14085_3861# a_13919_3861# vssd1 vssd1 sky130_fd_pr__nfet_01v8 ad=0p pd=0u as=0p ps=0u w=420000u l=150000u
X19 a_5280_2767# a_4333_2773# a_5172_2767# vccd1 sky130_fd_pr__pfet_01v8_hvt ad=0p pd=0u as=0p ps=0u w=420000u l=150000u
X20 vssd1 vccd1 vssd1 vssd1 sky130_fd_pr__nfet_01v8 ad=0p pd=0u as=0p ps=0u w=550000u l=590000u
X21 a_2489_3133# a_2011_2741# vssd1 vssd1 sky130_fd_pr__nfet_01v8 ad=0p pd=0u as=0p ps=0u w=420000u l=150000u
X22 vccd1 vssd1 vccd1 vccd1 sky130_fd_pr__pfet_01v8_hvt ad=0p pd=0u as=0p ps=0u w=870000u l=4.73e+06u
X23 a_11650_5737# _35_.B a_11568_5737# vccd1 sky130_fd_pr__pfet_01v8_hvt ad=0p pd=0u as=0p ps=0u w=420000u l=150000u
X24 _41_.B a_7867_5814# vssd1 vssd1 sky130_fd_pr__nfet_01v8 ad=0p pd=0u as=0p ps=0u w=650000u l=150000u
X25 a_11760_5175# _40_.A1 a_11902_5309# vssd1 sky130_fd_pr__nfet_01v8 ad=0p pd=0u as=0p ps=0u w=420000u l=150000u
X26 vssd1 a_12189_5241# a_12123_5309# vssd1 sky130_fd_pr__nfet_01v8 ad=0p pd=0u as=0p ps=0u w=420000u l=150000u
X27 vssd1 vccd1 vssd1 vssd1 sky130_fd_pr__nfet_01v8 ad=0p pd=0u as=0p ps=0u w=550000u l=4.73e+06u
X28 vccd1 clkbuf_0_clk.X a_4605_3285# vccd1 sky130_fd_pr__pfet_01v8_hvt ad=0p pd=0u as=0p ps=0u w=1e+06u l=150000u
X29 vssd1 a_4605_3285# _63_.CLK vssd1 sky130_fd_pr__nfet_01v8 ad=0p pd=0u as=0p ps=0u w=420000u l=150000u
X30 a_12715_2460# a_12559_2365# a_12860_2589# vccd1 sky130_fd_pr__pfet_01v8_hvt ad=0p pd=0u as=0p ps=0u w=420000u l=150000u
X31 vccd1 _63_.CLK a_4259_2223# vccd1 sky130_fd_pr__pfet_01v8_hvt ad=0p pd=0u as=0p ps=0u w=640000u l=150000u
X32 a_5340_2223# a_4259_2223# a_4993_2465# vccd1 sky130_fd_pr__pfet_01v8_hvt ad=0p pd=0u as=0p ps=0u w=420000u l=150000u
X33 vccd1 a_9494_2767# _54_.CLK vccd1 sky130_fd_pr__pfet_01v8_hvt ad=0p pd=0u as=0p ps=0u w=1e+06u l=150000u
X34 vccd1 a_9034_3855# clkbuf_0_clk.X vccd1 sky130_fd_pr__pfet_01v8_hvt ad=0p pd=0u as=0p ps=0u w=1e+06u l=150000u
X35 a_12242_3563# a_12520_3579# a_12476_3677# vccd1 sky130_fd_pr__pfet_01v8_hvt ad=0p pd=0u as=0p ps=0u w=420000u l=150000u
X36 a_2104_2223# _26_.A vccd1 vccd1 sky130_fd_pr__pfet_01v8_hvt ad=0p pd=0u as=0p ps=0u w=420000u l=150000u
X37 a_4702_2767# a_4167_2773# a_4616_3145# vccd1 sky130_fd_pr__pfet_01v8_hvt ad=0p pd=0u as=0p ps=0u w=420000u l=150000u
X38 vccd1 vssd1 vccd1 vccd1 sky130_fd_pr__pfet_01v8_hvt ad=0p pd=0u as=0p ps=0u w=870000u l=4.73e+06u
X39 vccd1 fanout13.A a_9135_3311# vccd1 sky130_fd_pr__pfet_01v8_hvt ad=0p pd=0u as=0p ps=0u w=640000u l=150000u
X40 clkbuf_0_clk.X a_9034_3855# vssd1 vssd1 sky130_fd_pr__nfet_01v8 ad=0p pd=0u as=0p ps=0u w=420000u l=150000u
X41 a_9258_4649# _47_.B a_9176_4649# vccd1 sky130_fd_pr__pfet_01v8_hvt ad=0p pd=0u as=0p ps=0u w=420000u l=150000u
X42 vccd1 _26_.A a_10638_4649# vccd1 sky130_fd_pr__pfet_01v8_hvt ad=0p pd=0u as=0p ps=0u w=420000u l=150000u
X43 vssd1 vccd1 vssd1 vssd1 sky130_fd_pr__nfet_01v8 ad=0p pd=0u as=0p ps=0u w=550000u l=4.73e+06u
X44 a_15248_4649# _28_.X vssd1 vssd1 sky130_fd_pr__nfet_01v8 ad=0p pd=0u as=0p ps=0u w=420000u l=150000u
X45 a_13278_2589# a_12520_2491# a_12715_2460# vccd1 sky130_fd_pr__pfet_01v8_hvt ad=0p pd=0u as=0p ps=0u w=420000u l=150000u
X46 a_1849_2223# a_1683_2223# vccd1 vccd1 sky130_fd_pr__pfet_01v8_hvt ad=0p pd=0u as=0p ps=0u w=640000u l=150000u
X47 vssd1 vccd1 vssd1 vssd1 sky130_fd_pr__nfet_01v8 ad=0p pd=0u as=0p ps=0u w=550000u l=1.05e+06u
X48 vssd1 _63_.CLK a_1683_2223# vssd1 sky130_fd_pr__nfet_01v8 ad=0p pd=0u as=0p ps=0u w=420000u l=150000u
X49 vccd1 vssd1 vccd1 vccd1 sky130_fd_pr__pfet_01v8_hvt ad=0p pd=0u as=0p ps=0u w=870000u l=4.73e+06u
X50 vccd1 a_8928_5321# a_9103_5247# vccd1 sky130_fd_pr__pfet_01v8_hvt ad=0p pd=0u as=0p ps=0u w=420000u l=150000u
X51 vccd1 vssd1 vccd1 vccd1 sky130_fd_pr__pfet_01v8_hvt ad=0p pd=0u as=0p ps=0u w=870000u l=4.73e+06u
X52 _63_.CLK a_4605_3285# vssd1 vssd1 sky130_fd_pr__nfet_01v8 ad=0p pd=0u as=0p ps=0u w=420000u l=150000u
X53 vssd1 fanout13.A a_9135_3311# vssd1 sky130_fd_pr__nfet_01v8 ad=0p pd=0u as=0p ps=0u w=420000u l=150000u
X54 a_7355_3311# a_6909_3311# a_7259_3311# vssd1 sky130_fd_pr__nfet_01v8 ad=0p pd=0u as=0p ps=0u w=360000u l=150000u
X55 a_9794_2589# a_9668_2491# a_9390_2475# vssd1 sky130_fd_pr__nfet_01v8 ad=0p pd=0u as=0p ps=0u w=360000u l=150000u
X56 a_9034_3855# clk vccd1 vccd1 sky130_fd_pr__pfet_01v8_hvt ad=0p pd=0u as=0p ps=0u w=1e+06u l=150000u
X57 a_13231_4564# _35_.X vssd1 vssd1 sky130_fd_pr__nfet_01v8 ad=0p pd=0u as=0p ps=0u w=520000u l=150000u
X58 _63_.CLK a_4605_3285# vccd1 vccd1 sky130_fd_pr__pfet_01v8_hvt ad=0p pd=0u as=0p ps=0u w=1e+06u l=150000u
X59 a_12283_3009# _54_.CLK vssd1 vssd1 sky130_fd_pr__nfet_01v8 ad=0p pd=0u as=0p ps=0u w=420000u l=150000u
X60 a_5172_2767# a_4167_2773# a_5096_2767# vccd1 sky130_fd_pr__pfet_01v8_hvt ad=0p pd=0u as=0p ps=0u w=420000u l=150000u
X61 vssd1 _63_.RESET_B a_12277_2223# vssd1 sky130_fd_pr__nfet_01v8 ad=0p pd=0u as=0p ps=0u w=420000u l=150000u
X62 vccd1 a_12559_2365# a_12520_2491# vccd1 sky130_fd_pr__pfet_01v8_hvt ad=0p pd=0u as=0p ps=0u w=640000u l=150000u
X63 vccd1 vssd1 vccd1 vccd1 sky130_fd_pr__pfet_01v8_hvt ad=0p pd=0u as=0p ps=0u w=870000u l=4.73e+06u
X64 vssd1 vccd1 vssd1 vssd1 sky130_fd_pr__nfet_01v8 ad=0p pd=0u as=0p ps=0u w=550000u l=1.05e+06u
X65 a_7692_2767# a_7255_2741# vccd1 vccd1 sky130_fd_pr__pfet_01v8_hvt ad=0p pd=0u as=0p ps=0u w=420000u l=150000u
X66 _54_.CLK a_9494_2767# vccd1 vccd1 sky130_fd_pr__pfet_01v8_hvt ad=0p pd=0u as=0p ps=0u w=1e+06u l=150000u
X67 vssd1 a_9034_3855# clkbuf_0_clk.X vssd1 sky130_fd_pr__nfet_01v8 ad=0p pd=0u as=0p ps=0u w=420000u l=150000u
X68 vccd1 vssd1 vccd1 vccd1 sky130_fd_pr__pfet_01v8_hvt ad=0p pd=0u as=0p ps=0u w=870000u l=590000u
X69 vccd1 vssd1 vccd1 vccd1 sky130_fd_pr__pfet_01v8_hvt ad=0p pd=0u as=0p ps=0u w=870000u l=590000u
X70 a_4069_4233# a_2879_3861# a_3960_4233# vssd1 sky130_fd_pr__nfet_01v8 ad=0p pd=0u as=0p ps=0u w=360000u l=150000u
X71 a_12646_2589# a_12520_2491# a_12242_2475# vssd1 sky130_fd_pr__nfet_01v8 ad=0p pd=0u as=0p ps=0u w=360000u l=150000u
X72 vccd1 vssd1 vccd1 vccd1 sky130_fd_pr__pfet_01v8_hvt ad=0p pd=0u as=0p ps=0u w=870000u l=4.73e+06u
X73 vssd1 _25_.S a_13919_2775# vssd1 sky130_fd_pr__nfet_01v8 ad=0p pd=0u as=0p ps=0u w=420000u l=150000u
X74 vccd1 _40_.S a_8081_5814# vccd1 sky130_fd_pr__pfet_01v8_hvt ad=0p pd=0u as=0p ps=0u w=420000u l=150000u
X75 a_2926_3677# a_1849_3311# a_2764_3311# vccd1 sky130_fd_pr__pfet_01v8_hvt ad=0p pd=0u as=0p ps=0u w=420000u l=150000u
X76 a_6791_5652# _45_.A vccd1 vccd1 sky130_fd_pr__pfet_01v8_hvt ad=0p pd=0u as=0p ps=0u w=790000u l=150000u
X77 a_6909_3311# a_6743_3311# vccd1 vccd1 sky130_fd_pr__pfet_01v8_hvt ad=0p pd=0u as=0p ps=0u w=640000u l=150000u
X78 a_9863_2460# a_9707_2365# a_10008_2589# vccd1 sky130_fd_pr__pfet_01v8_hvt ad=0p pd=0u as=0p ps=0u w=420000u l=150000u
X79 vssd1 vccd1 vssd1 vssd1 sky130_fd_pr__nfet_01v8 ad=0p pd=0u as=0p ps=0u w=550000u l=590000u
X80 vssd1 _63_.CLK a_6743_3311# vssd1 sky130_fd_pr__nfet_01v8 ad=0p pd=0u as=0p ps=0u w=420000u l=150000u
X81 a_7477_3553# a_7259_3311# vccd1 vccd1 sky130_fd_pr__pfet_01v8_hvt ad=0p pd=0u as=0p ps=0u w=840000u l=150000u
X82 dq[5] a_14471_7127# vccd1 vccd1 sky130_fd_pr__pfet_01v8_hvt ad=2.7e+11p pd=2.54e+06u as=0p ps=0u w=1e+06u l=150000u
X83 a_8013_4949# a_7847_4949# vccd1 vccd1 sky130_fd_pr__pfet_01v8_hvt ad=0p pd=0u as=0p ps=0u w=640000u l=150000u
X84 a_3300_4221# _39_.X vccd1 vccd1 sky130_fd_pr__pfet_01v8_hvt ad=0p pd=0u as=0p ps=0u w=420000u l=150000u
X85 a_8178_3311# _52_.RESET_B vssd1 vssd1 sky130_fd_pr__nfet_01v8 ad=0p pd=0u as=0p ps=0u w=420000u l=150000u
X86 vssd1 a_12715_2460# a_12646_2589# vssd1 sky130_fd_pr__nfet_01v8 ad=0p pd=0u as=0p ps=0u w=640000u l=150000u
X87 a_5515_2197# a_5340_2223# a_5694_2223# vssd1 sky130_fd_pr__nfet_01v8 ad=0p pd=0u as=0p ps=0u w=420000u l=150000u
X88 vssd1 vccd1 vssd1 vssd1 sky130_fd_pr__nfet_01v8 ad=0p pd=0u as=0p ps=0u w=550000u l=4.73e+06u
X89 a_8081_5814# output6.A a_7867_5814# vccd1 sky130_fd_pr__pfet_01v8_hvt ad=0p pd=0u as=0p ps=0u w=420000u l=150000u
X90 vccd1 a_7129_5241# a_7159_4982# vccd1 sky130_fd_pr__pfet_01v8_hvt ad=0p pd=0u as=0p ps=0u w=420000u l=150000u
X91 vccd1 a_9034_3855# clkbuf_0_clk.X vccd1 sky130_fd_pr__pfet_01v8_hvt ad=0p pd=0u as=0p ps=0u w=1e+06u l=150000u
X92 a_14543_3855# _52_.RESET_B vccd1 vccd1 sky130_fd_pr__pfet_01v8_hvt ad=0p pd=0u as=0p ps=0u w=420000u l=150000u
X93 vccd1 a_10103_3476# _48_.X vccd1 sky130_fd_pr__pfet_01v8_hvt ad=0p pd=0u as=0p ps=0u w=790000u l=150000u
X94 _63_.RESET_B a_9135_3311# vssd1 vssd1 sky130_fd_pr__nfet_01v8 ad=0p pd=0u as=0p ps=0u w=650000u l=150000u
X95 a_10351_4982# output3.A a_10351_5309# vssd1 sky130_fd_pr__nfet_01v8 ad=0p pd=0u as=0p ps=0u w=420000u l=150000u
X96 a_8268_5309# _40_.S vssd1 vssd1 sky130_fd_pr__nfet_01v8 ad=0p pd=0u as=0p ps=0u w=420000u l=150000u
X97 vccd1 vssd1 vccd1 vccd1 sky130_fd_pr__pfet_01v8_hvt ad=0p pd=0u as=0p ps=0u w=870000u l=1.97e+06u
X98 a_10426_2589# a_9668_2491# a_9863_2460# vccd1 sky130_fd_pr__pfet_01v8_hvt ad=0p pd=0u as=0p ps=0u w=420000u l=150000u
X99 vccd1 vssd1 vccd1 vccd1 sky130_fd_pr__pfet_01v8_hvt ad=0p pd=0u as=0p ps=0u w=870000u l=590000u
X100 vssd1 vccd1 vssd1 vssd1 sky130_fd_pr__nfet_01v8 ad=0p pd=0u as=0p ps=0u w=550000u l=4.73e+06u
X101 vssd1 a_15175_4159# a_15109_4233# vssd1 sky130_fd_pr__nfet_01v8 ad=0p pd=0u as=0p ps=0u w=420000u l=150000u
X102 vccd1 a_9494_2767# _54_.CLK vccd1 sky130_fd_pr__pfet_01v8_hvt ad=0p pd=0u as=0p ps=0u w=1e+06u l=150000u
X103 a_7775_3009# _54_.CLK vccd1 vccd1 sky130_fd_pr__pfet_01v8_hvt ad=0p pd=0u as=0p ps=0u w=640000u l=150000u
X104 vccd1 _63_.RESET_B a_7255_2741# vccd1 sky130_fd_pr__pfet_01v8_hvt ad=0p pd=0u as=0p ps=0u w=420000u l=150000u
X105 a_2687_2741# a_2531_3009# a_2832_2767# vccd1 sky130_fd_pr__pfet_01v8_hvt ad=0p pd=0u as=0p ps=0u w=420000u l=150000u
X106 _52_.RESET_B a_4043_4373# vssd1 vssd1 sky130_fd_pr__nfet_01v8 ad=0p pd=0u as=0p ps=0u w=420000u l=150000u
X107 a_5172_2767# a_4333_2773# a_5196_3133# vssd1 sky130_fd_pr__nfet_01v8 ad=0p pd=0u as=0p ps=0u w=420000u l=150000u
X108 vssd1 a_2531_3009# a_2492_2883# vssd1 sky130_fd_pr__nfet_01v8 ad=0p pd=0u as=0p ps=0u w=420000u l=150000u
X109 _28_.X a_13203_4982# vssd1 vssd1 sky130_fd_pr__nfet_01v8 ad=0p pd=0u as=0p ps=0u w=650000u l=150000u
X110 vccd1 vssd1 vccd1 vccd1 sky130_fd_pr__pfet_01v8_hvt ad=0p pd=0u as=0p ps=0u w=870000u l=4.73e+06u
X111 a_12584_3855# a_12370_3855# vccd1 vccd1 sky130_fd_pr__pfet_01v8_hvt ad=0p pd=0u as=0p ps=0u w=420000u l=150000u
X112 a_2939_2197# a_2764_2223# a_3118_2223# vssd1 sky130_fd_pr__nfet_01v8 ad=0p pd=0u as=0p ps=0u w=420000u l=150000u
X113 dq[7] a_18059_7127# vssd1 vssd1 sky130_fd_pr__nfet_01v8 ad=1.755e+11p pd=1.84e+06u as=0p ps=0u w=650000u l=150000u
X114 vssd1 vccd1 vssd1 vssd1 sky130_fd_pr__nfet_01v8 ad=0p pd=0u as=0p ps=0u w=550000u l=590000u
X115 vccd1 _29_.A a_15330_4649# vccd1 sky130_fd_pr__pfet_01v8_hvt ad=0p pd=0u as=0p ps=0u w=420000u l=150000u
X116 vccd1 a_9707_2365# a_9668_2491# vccd1 sky130_fd_pr__pfet_01v8_hvt ad=0p pd=0u as=0p ps=0u w=640000u l=150000u
X117 vccd1 vssd1 vccd1 vccd1 sky130_fd_pr__pfet_01v8_hvt ad=0p pd=0u as=0p ps=0u w=870000u l=4.73e+06u
X118 vssd1 vccd1 vssd1 vssd1 sky130_fd_pr__nfet_01v8 ad=0p pd=0u as=0p ps=0u w=550000u l=590000u
X119 a_12211_4726# a_12029_4726# vccd1 vccd1 sky130_fd_pr__pfet_01v8_hvt ad=0p pd=0u as=0p ps=0u w=420000u l=150000u
X120 vssd1 vccd1 vssd1 vssd1 sky130_fd_pr__nfet_01v8 ad=0p pd=0u as=0p ps=0u w=550000u l=4.73e+06u
X121 a_3250_2767# a_2492_2883# a_2687_2741# vccd1 sky130_fd_pr__pfet_01v8_hvt ad=0p pd=0u as=0p ps=0u w=420000u l=150000u
X122 vssd1 a_5172_2767# a_5742_2767# vssd1 sky130_fd_pr__nfet_01v8 ad=0p pd=0u as=0p ps=0u w=420000u l=150000u
X123 vccd1 a_7900_7093# dq[3] vccd1 sky130_fd_pr__pfet_01v8_hvt ad=0p pd=0u as=2.7e+11p ps=2.54e+06u w=1e+06u l=150000u
X124 a_14653_3829# a_14435_4233# vccd1 vccd1 sky130_fd_pr__pfet_01v8_hvt ad=0p pd=0u as=0p ps=0u w=840000u l=150000u
X125 _31_.A0 a_2939_3285# vssd1 vssd1 sky130_fd_pr__nfet_01v8 ad=0p pd=0u as=0p ps=0u w=650000u l=150000u
X126 vccd1 a_15015_2460# a_14946_2589# vccd1 sky130_fd_pr__pfet_01v8_hvt ad=0p pd=0u as=0p ps=0u w=840000u l=150000u
X127 a_11568_5737# _35_.B vssd1 vssd1 sky130_fd_pr__nfet_01v8 ad=0p pd=0u as=0p ps=0u w=420000u l=150000u
X128 a_5502_2589# a_4425_2223# a_5340_2223# vccd1 sky130_fd_pr__pfet_01v8_hvt ad=0p pd=0u as=0p ps=0u w=420000u l=150000u
R0 vccd1 _60__15.HI sky130_fd_pr__res_generic_po w=480000u l=45000u
X129 clkbuf_0_clk.X a_9034_3855# vccd1 vccd1 sky130_fd_pr__pfet_01v8_hvt ad=0p pd=0u as=0p ps=0u w=1e+06u l=150000u
X130 _54_.CLK a_9494_2767# vccd1 vccd1 sky130_fd_pr__pfet_01v8_hvt ad=0p pd=0u as=0p ps=0u w=1e+06u l=150000u
X131 vssd1 a_9034_3855# clkbuf_0_clk.X vssd1 sky130_fd_pr__nfet_01v8 ad=0p pd=0u as=0p ps=0u w=420000u l=150000u
X132 a_4993_2465# a_4775_2223# vccd1 vccd1 sky130_fd_pr__pfet_01v8_hvt ad=0p pd=0u as=0p ps=0u w=840000u l=150000u
X133 vccd1 vssd1 vccd1 vccd1 sky130_fd_pr__pfet_01v8_hvt ad=0p pd=0u as=0p ps=0u w=870000u l=590000u
X134 a_8325_4373# _41_.A vccd1 vccd1 sky130_fd_pr__pfet_01v8_hvt ad=0p pd=0u as=0p ps=0u w=420000u l=150000u
X135 a_4333_2773# a_4167_2773# vssd1 vssd1 sky130_fd_pr__nfet_01v8 ad=0p pd=0u as=0p ps=0u w=420000u l=150000u
X136 vssd1 vccd1 vssd1 vssd1 sky130_fd_pr__nfet_01v8 ad=0p pd=0u as=0p ps=0u w=550000u l=4.73e+06u
X137 a_15015_2460# a_14859_2365# a_15160_2589# vccd1 sky130_fd_pr__pfet_01v8_hvt ad=0p pd=0u as=0p ps=0u w=420000u l=150000u
X138 vccd1 vssd1 vccd1 vccd1 sky130_fd_pr__pfet_01v8_hvt ad=0p pd=0u as=0p ps=0u w=870000u l=590000u
X139 dq[3] a_7900_7093# vssd1 vssd1 sky130_fd_pr__nfet_01v8 ad=1.755e+11p pd=1.84e+06u as=0p ps=0u w=650000u l=150000u
X140 vssd1 vccd1 vssd1 vssd1 sky130_fd_pr__nfet_01v8 ad=0p pd=0u as=0p ps=0u w=550000u l=590000u
X141 a_12200_3855# a_11763_3829# vccd1 vccd1 sky130_fd_pr__pfet_01v8_hvt ad=0p pd=0u as=0p ps=0u w=420000u l=150000u
X142 vccd1 a_9135_3311# _63_.RESET_B vccd1 sky130_fd_pr__pfet_01v8_hvt ad=0p pd=0u as=0p ps=0u w=1e+06u l=150000u
X143 vssd1 vccd1 vssd1 vssd1 sky130_fd_pr__nfet_01v8 ad=0p pd=0u as=0p ps=0u w=550000u l=4.73e+06u
X144 vccd1 clkbuf_0_clk.X a_4605_3285# vccd1 sky130_fd_pr__pfet_01v8_hvt ad=0p pd=0u as=0p ps=0u w=1e+06u l=150000u
X145 vssd1 a_4605_3285# _63_.CLK vssd1 sky130_fd_pr__nfet_01v8 ad=0p pd=0u as=0p ps=0u w=420000u l=150000u
X146 vccd1 _35_.A a_13278_3677# vccd1 sky130_fd_pr__pfet_01v8_hvt ad=0p pd=0u as=0p ps=0u w=420000u l=150000u
X147 vssd1 _52_.RESET_B a_2461_3311# vssd1 sky130_fd_pr__nfet_01v8 ad=0p pd=0u as=0p ps=0u w=420000u l=150000u
X148 a_15578_2589# a_14820_2491# a_15015_2460# vccd1 sky130_fd_pr__pfet_01v8_hvt ad=0p pd=0u as=0p ps=0u w=420000u l=150000u
X149 vccd1 vssd1 vccd1 vccd1 sky130_fd_pr__pfet_01v8_hvt ad=0p pd=0u as=0p ps=0u w=870000u l=1.05e+06u
X150 vccd1 clk a_9034_3855# vccd1 sky130_fd_pr__pfet_01v8_hvt ad=0p pd=0u as=0p ps=0u w=1e+06u l=150000u
X151 vccd1 a_4993_2465# a_4883_2589# vccd1 sky130_fd_pr__pfet_01v8_hvt ad=0p pd=0u as=0p ps=0u w=420000u l=150000u
X152 vccd1 vssd1 vccd1 vccd1 sky130_fd_pr__pfet_01v8_hvt ad=0p pd=0u as=0p ps=0u w=870000u l=4.73e+06u
X153 vccd1 a_4605_3285# _63_.CLK vccd1 sky130_fd_pr__pfet_01v8_hvt ad=0p pd=0u as=0p ps=0u w=1e+06u l=150000u
X154 vccd1 vssd1 vccd1 vccd1 sky130_fd_pr__pfet_01v8_hvt ad=0p pd=0u as=0p ps=0u w=870000u l=4.73e+06u
X155 vccd1 vssd1 vccd1 vccd1 sky130_fd_pr__pfet_01v8_hvt ad=0p pd=0u as=0p ps=0u w=870000u l=4.73e+06u
X156 a_3657_4221# a_3613_3829# a_3491_4233# vssd1 sky130_fd_pr__nfet_01v8 ad=0p pd=0u as=0p ps=0u w=420000u l=150000u
X157 a_12039_3285# a_12242_3563# vccd1 vccd1 sky130_fd_pr__pfet_01v8_hvt ad=0p pd=0u as=0p ps=0u w=420000u l=150000u
X158 vccd1 a_4036_7093# dq[1] vccd1 sky130_fd_pr__pfet_01v8_hvt ad=0p pd=0u as=2.7e+11p ps=2.54e+06u w=1e+06u l=150000u
X159 vssd1 vccd1 vssd1 vssd1 sky130_fd_pr__nfet_01v8 ad=0p pd=0u as=0p ps=0u w=550000u l=1.97e+06u
X160 a_6085_4551# _34_.S vssd1 vssd1 sky130_fd_pr__nfet_01v8 ad=0p pd=0u as=0p ps=0u w=420000u l=150000u
X161 vccd1 a_2489_4551# hold1.X vccd1 sky130_fd_pr__pfet_01v8_hvt ad=0p pd=0u as=0p ps=0u w=1e+06u l=150000u
X162 vccd1 vssd1 vccd1 vccd1 sky130_fd_pr__pfet_01v8_hvt ad=0p pd=0u as=0p ps=0u w=870000u l=4.73e+06u
X163 vccd1 vssd1 vccd1 vccd1 sky130_fd_pr__pfet_01v8_hvt ad=0p pd=0u as=0p ps=0u w=870000u l=1.05e+06u
X164 vssd1 _63_.RESET_B a_14577_2223# vssd1 sky130_fd_pr__nfet_01v8 ad=0p pd=0u as=0p ps=0u w=420000u l=150000u
X165 vccd1 a_14859_2365# a_14820_2491# vccd1 sky130_fd_pr__pfet_01v8_hvt ad=0p pd=0u as=0p ps=0u w=640000u l=150000u
X166 a_7795_5814# a_7613_5814# vccd1 vccd1 sky130_fd_pr__pfet_01v8_hvt ad=0p pd=0u as=0p ps=0u w=420000u l=150000u
X167 vccd1 vssd1 vccd1 vccd1 sky130_fd_pr__pfet_01v8_hvt ad=0p pd=0u as=0p ps=0u w=870000u l=590000u
X168 _63_.CLK a_4605_3285# vssd1 vssd1 sky130_fd_pr__nfet_01v8 ad=0p pd=0u as=0p ps=0u w=420000u l=150000u
X169 vccd1 _63_.RESET_B a_12860_3677# vccd1 sky130_fd_pr__pfet_01v8_hvt ad=0p pd=0u as=0p ps=0u w=420000u l=150000u
X170 dq[1] a_4036_7093# vssd1 vssd1 sky130_fd_pr__nfet_01v8 ad=1.755e+11p pd=1.84e+06u as=0p ps=0u w=650000u l=150000u
X171 a_6700_5175# output5.A a_6842_4982# vccd1 sky130_fd_pr__pfet_01v8_hvt ad=0p pd=0u as=0p ps=0u w=420000u l=150000u
X172 a_12504_4399# _40_.A1 a_12283_4726# vssd1 sky130_fd_pr__nfet_01v8 ad=0p pd=0u as=0p ps=0u w=420000u l=150000u
X173 vssd1 vccd1 vssd1 vssd1 sky130_fd_pr__nfet_01v8 ad=0p pd=0u as=0p ps=0u w=550000u l=590000u
X174 a_13278_3677# a_12559_3453# a_12715_3548# vssd1 sky130_fd_pr__nfet_01v8 ad=0p pd=0u as=0p ps=0u w=360000u l=150000u
X175 vssd1 vccd1 vssd1 vssd1 sky130_fd_pr__nfet_01v8 ad=0p pd=0u as=0p ps=0u w=550000u l=4.73e+06u
X176 a_6791_5652# _45_.A vssd1 vssd1 sky130_fd_pr__nfet_01v8 ad=0p pd=0u as=0p ps=0u w=520000u l=150000u
X177 vssd1 vccd1 vssd1 vssd1 sky130_fd_pr__nfet_01v8 ad=0p pd=0u as=0p ps=0u w=550000u l=590000u
X178 vccd1 _52_.RESET_B a_11763_3829# vccd1 sky130_fd_pr__pfet_01v8_hvt ad=0p pd=0u as=0p ps=0u w=420000u l=150000u
X179 a_12283_4097# _54_.CLK vccd1 vccd1 sky130_fd_pr__pfet_01v8_hvt ad=0p pd=0u as=0p ps=0u w=640000u l=150000u
X180 a_15175_4159# a_15000_4233# a_15354_4221# vssd1 sky130_fd_pr__nfet_01v8 ad=0p pd=0u as=0p ps=0u w=420000u l=150000u
X181 a_14946_2589# a_14820_2491# a_14542_2475# vssd1 sky130_fd_pr__nfet_01v8 ad=0p pd=0u as=0p ps=0u w=360000u l=150000u
X182 vccd1 vssd1 vccd1 vccd1 sky130_fd_pr__pfet_01v8_hvt ad=0p pd=0u as=0p ps=0u w=870000u l=4.73e+06u
X183 a_4043_4373# fanout13.A vccd1 vccd1 sky130_fd_pr__pfet_01v8_hvt ad=0p pd=0u as=0p ps=0u w=1e+06u l=150000u
X184 vssd1 vccd1 vssd1 vssd1 sky130_fd_pr__nfet_01v8 ad=0p pd=0u as=0p ps=0u w=550000u l=1.05e+06u
X185 a_12476_2589# a_12039_2197# vccd1 vccd1 sky130_fd_pr__pfet_01v8_hvt ad=0p pd=0u as=0p ps=0u w=420000u l=150000u
X186 a_6842_4982# _63_.Q vccd1 vccd1 sky130_fd_pr__pfet_01v8_hvt ad=0p pd=0u as=0p ps=0u w=420000u l=150000u
X187 vssd1 _52_.RESET_B a_5037_2223# vssd1 sky130_fd_pr__nfet_01v8 ad=0p pd=0u as=0p ps=0u w=420000u l=150000u
X188 vssd1 a_5692_7093# dq[2] vssd1 sky130_fd_pr__nfet_01v8 ad=0p pd=0u as=1.755e+11p ps=1.84e+06u w=650000u l=150000u
X189 vccd1 vssd1 vccd1 vccd1 sky130_fd_pr__pfet_01v8_hvt ad=0p pd=0u as=0p ps=0u w=870000u l=1.97e+06u
X190 _47_.B a_7959_3894# vssd1 vssd1 sky130_fd_pr__nfet_01v8 ad=0p pd=0u as=0p ps=0u w=650000u l=150000u
X191 clkbuf_0_clk.X a_9034_3855# vccd1 vccd1 sky130_fd_pr__pfet_01v8_hvt ad=0p pd=0u as=0p ps=0u w=1e+06u l=150000u
X192 vssd1 a_10103_3476# _48_.X vssd1 sky130_fd_pr__nfet_01v8 ad=0p pd=0u as=0p ps=0u w=520000u l=150000u
X193 a_12189_5241# _34_.S vccd1 vccd1 sky130_fd_pr__pfet_01v8_hvt ad=0p pd=0u as=0p ps=0u w=420000u l=150000u
X194 vssd1 vccd1 vssd1 vssd1 sky130_fd_pr__nfet_01v8 ad=0p pd=0u as=0p ps=0u w=550000u l=590000u
X195 vccd1 vssd1 vccd1 vccd1 sky130_fd_pr__pfet_01v8_hvt ad=0p pd=0u as=0p ps=0u w=870000u l=4.73e+06u
X196 vccd1 a_5322_2741# a_5280_2767# vccd1 sky130_fd_pr__pfet_01v8_hvt ad=0p pd=0u as=0p ps=0u w=420000u l=150000u
X197 vssd1 vccd1 vssd1 vssd1 sky130_fd_pr__nfet_01v8 ad=0p pd=0u as=0p ps=0u w=550000u l=1.97e+06u
X198 _54_.CLK a_9494_2767# vssd1 vssd1 sky130_fd_pr__nfet_01v8 ad=0p pd=0u as=0p ps=0u w=420000u l=150000u
X199 a_2687_2741# a_2492_2883# a_2997_3133# vssd1 sky130_fd_pr__nfet_01v8 ad=0p pd=0u as=0p ps=0u w=360000u l=150000u
X200 vccd1 _54_.CLK a_13919_3861# vccd1 sky130_fd_pr__pfet_01v8_hvt ad=0p pd=0u as=0p ps=0u w=640000u l=150000u
X201 vccd1 vssd1 vccd1 vccd1 sky130_fd_pr__pfet_01v8_hvt ad=0p pd=0u as=0p ps=0u w=870000u l=2.89e+06u
X202 vssd1 a_4043_4373# _52_.RESET_B vssd1 sky130_fd_pr__nfet_01v8 ad=0p pd=0u as=0p ps=0u w=420000u l=150000u
X203 vccd1 a_15000_4233# a_15175_4159# vccd1 sky130_fd_pr__pfet_01v8_hvt ad=0p pd=0u as=0p ps=0u w=420000u l=150000u
X204 a_11966_2899# a_12244_2883# a_12200_2767# vccd1 sky130_fd_pr__pfet_01v8_hvt ad=0p pd=0u as=0p ps=0u w=420000u l=150000u
X205 a_13417_4982# _28_.A0 a_13203_4982# vccd1 sky130_fd_pr__pfet_01v8_hvt ad=0p pd=0u as=0p ps=0u w=420000u l=150000u
X206 a_4122_3855# a_3045_3861# a_3960_4233# vccd1 sky130_fd_pr__pfet_01v8_hvt ad=0p pd=0u as=0p ps=0u w=420000u l=150000u
X207 vccd1 vssd1 vccd1 vccd1 sky130_fd_pr__pfet_01v8_hvt ad=0p pd=0u as=0p ps=0u w=870000u l=1.05e+06u
X208 a_4521_2767# _60__15.LO vccd1 vccd1 sky130_fd_pr__pfet_01v8_hvt ad=0p pd=0u as=0p ps=0u w=840000u l=150000u
X209 dq[0] a_1644_7093# vssd1 vssd1 sky130_fd_pr__nfet_01v8 ad=1.755e+11p pd=1.84e+06u as=0p ps=0u w=650000u l=150000u
X210 a_12953_2223# _63_.RESET_B vssd1 vssd1 sky130_fd_pr__nfet_01v8 ad=0p pd=0u as=0p ps=0u w=420000u l=150000u
X211 a_2214_2899# a_2531_3009# a_2489_3133# vssd1 sky130_fd_pr__nfet_01v8 ad=0p pd=0u as=0p ps=0u w=360000u l=150000u
X212 vssd1 a_4605_3285# _63_.CLK vssd1 sky130_fd_pr__nfet_01v8 ad=0p pd=0u as=0p ps=0u w=420000u l=150000u
X213 a_3521_4917# a_3303_5321# vssd1 vssd1 sky130_fd_pr__nfet_01v8 ad=0p pd=0u as=0p ps=0u w=640000u l=150000u
X214 vccd1 vssd1 vccd1 vccd1 sky130_fd_pr__pfet_01v8_hvt ad=0p pd=0u as=0p ps=0u w=870000u l=590000u
X215 vssd1 vccd1 vssd1 vssd1 sky130_fd_pr__nfet_01v8 ad=0p pd=0u as=0p ps=0u w=550000u l=1.05e+06u
X216 vssd1 vccd1 vssd1 vssd1 sky130_fd_pr__nfet_01v8 ad=0p pd=0u as=0p ps=0u w=550000u l=1.05e+06u
X217 vccd1 a_2417_3553# a_2307_3677# vccd1 sky130_fd_pr__pfet_01v8_hvt ad=0p pd=0u as=0p ps=0u w=420000u l=150000u
X218 a_12559_3453# _54_.CLK vccd1 vccd1 sky130_fd_pr__pfet_01v8_hvt ad=0p pd=0u as=0p ps=0u w=640000u l=150000u
X219 vssd1 a_8325_4373# a_8259_4399# vssd1 sky130_fd_pr__nfet_01v8 ad=0p pd=0u as=0p ps=0u w=420000u l=150000u
X220 vccd1 vssd1 vccd1 vccd1 sky130_fd_pr__pfet_01v8_hvt ad=0p pd=0u as=0p ps=0u w=870000u l=4.73e+06u
X221 vssd1 _35_.A a_13278_3677# vssd1 sky130_fd_pr__nfet_01v8 ad=0p pd=0u as=0p ps=0u w=420000u l=150000u
X222 vccd1 _63_.RESET_B a_12039_2197# vccd1 sky130_fd_pr__pfet_01v8_hvt ad=0p pd=0u as=0p ps=0u w=420000u l=150000u
X223 a_8154_6147# _41_.B a_8072_6147# vccd1 sky130_fd_pr__pfet_01v8_hvt ad=0p pd=0u as=0p ps=0u w=420000u l=150000u
X224 vccd1 a_4792_2741# a_4702_2767# vccd1 sky130_fd_pr__pfet_01v8_hvt ad=0p pd=0u as=0p ps=0u w=420000u l=150000u
X225 _52_.RESET_B a_4043_4373# vssd1 vssd1 sky130_fd_pr__nfet_01v8 ad=0p pd=0u as=0p ps=0u w=420000u l=150000u
X226 _63_.CLK a_4605_3285# vssd1 vssd1 sky130_fd_pr__nfet_01v8 ad=0p pd=0u as=0p ps=0u w=420000u l=150000u
X227 vssd1 _48_.X a_8494_2767# vssd1 sky130_fd_pr__nfet_01v8 ad=0p pd=0u as=0p ps=0u w=420000u l=150000u
X228 clkbuf_0_clk.X a_9034_3855# vssd1 vssd1 sky130_fd_pr__nfet_01v8 ad=0p pd=0u as=0p ps=0u w=420000u l=150000u
X229 a_2417_2465# a_2199_2223# vssd1 vssd1 sky130_fd_pr__nfet_01v8 ad=0p pd=0u as=0p ps=0u w=640000u l=150000u
X230 _42_.X a_11343_4399# vssd1 vssd1 sky130_fd_pr__nfet_01v8 ad=0p pd=0u as=0p ps=0u w=520000u l=150000u
X231 vssd1 vccd1 vssd1 vssd1 sky130_fd_pr__nfet_01v8 ad=0p pd=0u as=0p ps=0u w=550000u l=4.73e+06u
X232 vccd1 a_12715_3548# a_12646_3677# vccd1 sky130_fd_pr__pfet_01v8_hvt ad=0p pd=0u as=0p ps=0u w=840000u l=150000u
X233 a_2873_3311# a_1683_3311# a_2764_3311# vssd1 sky130_fd_pr__nfet_01v8 ad=0p pd=0u as=0p ps=0u w=360000u l=150000u
X234 _49_.D a_10975_3311# vccd1 vccd1 sky130_fd_pr__pfet_01v8_hvt ad=0p pd=0u as=0p ps=0u w=790000u l=150000u
X235 vssd1 vccd1 vssd1 vssd1 sky130_fd_pr__nfet_01v8 ad=0p pd=0u as=0p ps=0u w=550000u l=2.89e+06u
X236 a_2764_2223# a_1849_2223# a_2417_2465# vssd1 sky130_fd_pr__nfet_01v8 ad=0p pd=0u as=0p ps=0u w=360000u l=150000u
D0 vssd1 rst_n sky130_fd_pr__diode_pw2nd_05v5 pj=2.64e+06 area=4.347e+11
X237 a_4605_3285# clkbuf_0_clk.X vccd1 vccd1 sky130_fd_pr__pfet_01v8_hvt ad=0p pd=0u as=0p ps=0u w=1e+06u l=150000u
X238 vssd1 vccd1 vssd1 vssd1 sky130_fd_pr__nfet_01v8 ad=0p pd=0u as=0p ps=0u w=550000u l=1.05e+06u
X239 a_8241_3133# a_7862_2767# a_8169_3133# vssd1 sky130_fd_pr__nfet_01v8 ad=0p pd=0u as=0p ps=0u w=420000u l=150000u
X240 vssd1 _32_.A a_13424_5309# vssd1 sky130_fd_pr__nfet_01v8 ad=0p pd=0u as=0p ps=0u w=420000u l=150000u
X241 vssd1 a_7255_2741# output4.A vssd1 sky130_fd_pr__nfet_01v8 ad=0p pd=0u as=0p ps=0u w=650000u l=150000u
X242 a_7999_3285# _52_.RESET_B vccd1 vccd1 sky130_fd_pr__pfet_01v8_hvt ad=0p pd=0u as=0p ps=0u w=420000u l=150000u
X243 _35_.X a_11568_5737# vssd1 vssd1 sky130_fd_pr__nfet_01v8 ad=0p pd=0u as=0p ps=0u w=650000u l=150000u
X244 a_4043_5247# _52_.RESET_B vccd1 vccd1 sky130_fd_pr__pfet_01v8_hvt ad=0p pd=0u as=0p ps=0u w=420000u l=150000u
X245 vssd1 vccd1 vssd1 vssd1 sky130_fd_pr__nfet_01v8 ad=0p pd=0u as=0p ps=0u w=550000u l=590000u
X246 vccd1 vssd1 vccd1 vccd1 sky130_fd_pr__pfet_01v8_hvt ad=0p pd=0u as=0p ps=0u w=870000u l=590000u
X247 vssd1 a_9034_3855# clkbuf_0_clk.X vssd1 sky130_fd_pr__nfet_01v8 ad=0p pd=0u as=0p ps=0u w=420000u l=150000u
X248 _54_.CLK a_9494_2767# vccd1 vccd1 sky130_fd_pr__pfet_01v8_hvt ad=0p pd=0u as=0p ps=0u w=1e+06u l=150000u
X249 vssd1 vccd1 vssd1 vssd1 sky130_fd_pr__nfet_01v8 ad=0p pd=0u as=0p ps=0u w=550000u l=4.73e+06u
X250 a_10572_5309# _40_.A1 a_10351_4982# vssd1 sky130_fd_pr__nfet_01v8 ad=0p pd=0u as=0p ps=0u w=420000u l=150000u
X251 vssd1 a_11760_5175# _35_.B vssd1 sky130_fd_pr__nfet_01v8 ad=0p pd=0u as=0p ps=0u w=650000u l=150000u
X252 vssd1 vccd1 vssd1 vssd1 sky130_fd_pr__nfet_01v8 ad=0p pd=0u as=0p ps=0u w=550000u l=4.73e+06u
X253 a_11763_3829# a_11966_3987# vccd1 vccd1 sky130_fd_pr__pfet_01v8_hvt ad=0p pd=0u as=0p ps=0u w=420000u l=150000u
X254 vssd1 vccd1 vssd1 vssd1 sky130_fd_pr__nfet_01v8 ad=0p pd=0u as=0p ps=0u w=550000u l=4.73e+06u
X255 a_3045_3861# a_2879_3861# vccd1 vccd1 sky130_fd_pr__pfet_01v8_hvt ad=0p pd=0u as=0p ps=0u w=640000u l=150000u
X256 a_7477_3553# a_7259_3311# vssd1 vssd1 sky130_fd_pr__nfet_01v8 ad=0p pd=0u as=0p ps=0u w=640000u l=150000u
X257 dq[2] a_5692_7093# vccd1 vccd1 sky130_fd_pr__pfet_01v8_hvt ad=2.7e+11p pd=2.54e+06u as=0p ps=0u w=1e+06u l=150000u
X258 vccd1 vssd1 vccd1 vccd1 sky130_fd_pr__pfet_01v8_hvt ad=0p pd=0u as=0p ps=0u w=870000u l=4.73e+06u
X259 a_3521_4917# a_3303_5321# vccd1 vccd1 sky130_fd_pr__pfet_01v8_hvt ad=0p pd=0u as=0p ps=0u w=840000u l=150000u
X260 vccd1 _26_.A a_8173_3894# vccd1 sky130_fd_pr__pfet_01v8_hvt ad=0p pd=0u as=0p ps=0u w=420000u l=150000u
X261 vccd1 clk a_9034_3855# vccd1 sky130_fd_pr__pfet_01v8_hvt ad=0p pd=0u as=0p ps=0u w=1e+06u l=150000u
X262 a_12559_2365# _54_.CLK vssd1 vssd1 sky130_fd_pr__nfet_01v8 ad=0p pd=0u as=0p ps=0u w=420000u l=150000u
X263 a_13002_2767# a_12283_3009# a_12439_2741# vssd1 sky130_fd_pr__nfet_01v8 ad=0p pd=0u as=0p ps=0u w=360000u l=150000u
X264 _54_.CLK a_9494_2767# vssd1 vssd1 sky130_fd_pr__nfet_01v8 ad=0p pd=0u as=0p ps=0u w=420000u l=150000u
X265 vccd1 a_4605_3285# _63_.CLK vccd1 sky130_fd_pr__pfet_01v8_hvt ad=0p pd=0u as=0p ps=0u w=1e+06u l=150000u
X266 a_7900_7093# output6.A vccd1 vccd1 sky130_fd_pr__pfet_01v8_hvt ad=0p pd=0u as=0p ps=0u w=640000u l=150000u