v {xschem version=3.1.0 file_version=1.2
}
G {}
K {}
V {}
S {}
E {}
C {devices/code_shown.sym} 820 -310 0 0 {name=s1 only_toplevel=false value="* NGSPICE file created from twg_top_test.ext - technology: sky130A

.subckt twg_top_test_flat IREF ULIM C50 C100 CLKIN LLIM B0 B1 B2 B3 B4 B5 B6 B7 VOUT
+ VREFP OPAEN GP GN VLO VHI
X0 a_5406_9020# a_5406_9020# VLO VLO sky130_fd_pr__nfet_01v8 ad=0p pd=0u as=1.46962e+14p ps=1.10145e+09u w=1e+07u l=300000u
X1 a_6469_1664# a_6406_1780# VHI VHI sky130_fd_pr__pfet_01v8 ad=0p pd=0u as=1.36029e+14p ps=9.8317e+08u w=420000u l=150000u
X2 a_7554_n8982# a_6256_n8982# VHI VHI sky130_fd_pr__pfet_01v8 ad=0p pd=0u as=0p ps=0u w=1e+07u l=300000u
X3 a_5172_n6052# a_2162_1962# sky130_fd_pr__cap_mim_m3_2 l=1.32e+07u w=3.7e+06u
X4 VLO VHI VLO VLO sky130_fd_pr__nfet_01v8_lvt ad=0p pd=0u as=0p ps=0u w=420000u l=1e+06u
X5 VLO a_4082_1676# a_4498_1990# VLO sky130_fd_pr__nfet_01v8_lvt ad=0p pd=0u as=0p ps=0u w=740000u l=150000u
X6 a_6553_1664# a_6087_1966# a_6584_2003# VLO sky130_fd_pr__nfet_01v8_lvt ad=0p pd=0u as=0p ps=0u w=420000u l=150000u
X7 a_7646_2046# a_6267_1620# a_7396_2020# VLO sky130_fd_pr__nfet_01v8_lvt ad=0p pd=0u as=0p ps=0u w=420000u l=150000u
X8 VHI CLKIN a_5033_1248# VHI sky130_fd_pr__pfet_01v8 ad=0p pd=0u as=0p ps=0u w=1.12e+06u l=150000u
D0 OPAEN VHI sky130_fd_pr__diode_pd2nw_05v5 pj=3.34e+06 area=6.552e+11
X9 VOUT a_36246_855# sky130_fd_pr__cap_mim_m3_1 l=3.14e+07u w=1.6e+06u
X10 VOUT a_24822_n51# sky130_fd_pr__cap_mim_m3_1 l=3.14e+07u w=1.6e+06u
X11 a_10295_n848# OPAEN VLO VLO sky130_fd_pr__nfet_01v8 ad=0p pd=0u as=0p ps=0u w=650000u l=150000u
X12 a_4375_1015# a_3894_n532# sky130_fd_pr__cap_mim_m3_1 l=1.6e+06u w=1.57e+07u
X13 VLO VHI sky130_fd_pr__cap_mim_m3_2 l=3.1e+07u w=1.3e+07u
X14 a_35532_n51# VOUT sky130_fd_pr__cap_mim_m3_2 l=3.14e+07u w=1.6e+06u
X15 a_4327_3238# C50 VLO VLO sky130_fd_pr__nfet_01v8 ad=0p pd=0u as=0p ps=0u w=2e+06u l=150000u
X16 a_19824_855# a_15452_807# VLO VLO sky130_fd_pr__nfet_01v8 ad=0p pd=0u as=0p ps=0u w=2e+06u l=150000u
X17 VHI VHI a_7615_1290# VHI sky130_fd_pr__pfet_01v8 ad=0p pd=0u as=0p ps=0u w=1e+06u l=150000u
X18 a_2162_2276# a_6256_10188# VHI VHI sky130_fd_pr__pfet_01v8 ad=0p pd=0u as=0p ps=0u w=1e+07u l=300000u
X19 VLO VHI VLO VLO sky130_fd_pr__nfet_01v8_lvt ad=0p pd=0u as=0p ps=0u w=420000u l=1e+06u
X20 a_4281_1990# a_4138_1859# VLO VLO sky130_fd_pr__nfet_01v8_lvt ad=0p pd=0u as=0p ps=0u w=740000u l=150000u
X21 VOUT a_21966_855# sky130_fd_pr__cap_mim_m3_1 l=3.14e+07u w=1.6e+06u
X22 a_34818_855# a_32588_807# VLO VLO sky130_fd_pr__nfet_01v8 ad=0p pd=0u as=0p ps=0u w=2e+06u l=150000u
X23 VHI a_6256_n8982# a_7554_n8982# VHI sky130_fd_pr__pfet_01v8 ad=0p pd=0u as=0p ps=0u w=1e+07u l=300000u
X24 a_8460_1990# a_7615_1719# VLO VLO sky130_fd_pr__nfet_01v8_lvt ad=0p pd=0u as=0p ps=0u w=740000u l=150000u
X25 a_37674_855# VOUT sky130_fd_pr__cap_mim_m3_2 l=1.57e+07u w=1.6e+06u
X26 VOUT a_23394_n51# sky130_fd_pr__cap_mim_m3_1 l=3.14e+07u w=1.6e+06u
X27 VHI a_4138_1859# a_4082_1676# VHI sky130_fd_pr__pfet_01v8 ad=0p pd=0u as=0p ps=0u w=840000u l=150000u
X28 a_34104_n51# VOUT sky130_fd_pr__cap_mim_m3_2 l=3.14e+07u w=1.6e+06u
X29 VHI a_7554_10188# a_6256_10188# VHI sky130_fd_pr__pfet_01v8 ad=0p pd=0u as=0p ps=0u w=1e+07u l=300000u
X30 VOUT a_17682_855# sky130_fd_pr__cap_mim_m3_1 l=3.14e+07u w=1.6e+06u
X31 VLO a_4817_1620# a_7042_1803# VLO sky130_fd_pr__nfet_01v8_lvt ad=0p pd=0u as=0p ps=0u w=420000u l=150000u
X32 VHI a_6256_10188# a_2162_2276# VHI sky130_fd_pr__pfet_01v8 ad=0p pd=0u as=0p ps=0u w=1e+07u l=300000u
X33 a_8325_n8885# a_6256_n8982# VHI VHI sky130_fd_pr__pfet_01v8 ad=0p pd=0u as=0p ps=0u w=1e+07u l=300000u
X34 a_3881_2580# a_3223_2347# VHI VHI sky130_fd_pr__pfet_01v8 ad=0p pd=0u as=0p ps=0u w=1.12e+06u l=150000u
X35 a_2162_2276# VHI VHI VHI sky130_fd_pr__pfet_01v8 ad=0p pd=0u as=0p ps=0u w=1e+07u l=300000u
X36 a_15452_807# B6 VLO sky130_fd_pr__res_xhigh_po_0p35 l=500000u
X37 a_7199_9100# LLIM a_6256_10188# VLO sky130_fd_pr__nfet_01v8_lvt ad=0p pd=0u as=0p ps=0u w=2.5e+06u l=150000u
X38 VOUT a_20538_n51# sky130_fd_pr__cap_mim_m3_1 l=3.14e+07u w=1.6e+06u
X39 a_5036_954# a_4375_1015# VLO VLO sky130_fd_pr__nfet_01v8_lvt ad=0p pd=0u as=0p ps=0u w=740000u l=150000u
X40 a_10852_6872# a_10295_n848# VLO VLO sky130_fd_pr__nfet_01v8 ad=0p pd=0u as=0p ps=0u w=2.5e+06u l=150000u
X41 a_31248_n51# VOUT sky130_fd_pr__cap_mim_m3_2 l=3.14e+07u w=1.6e+06u
X42 a_6406_1780# a_6553_1664# a_6872_1977# VLO sky130_fd_pr__nfet_01v8_lvt ad=0p pd=0u as=0p ps=0u w=550000u l=150000u
X43 a_7113_n5348# OPAEN a_10852_n3914# VLO sky130_fd_pr__nfet_01v8 ad=0p pd=0u as=0p ps=0u w=2.5e+06u l=150000u
X44 VHI a_6256_n8982# a_8325_n8885# VHI sky130_fd_pr__pfet_01v8 ad=0p pd=0u as=0p ps=0u w=1e+07u l=300000u
X45 VLO VLO VLO VLO sky130_fd_pr__nfet_01v8_lvt ad=0p pd=0u as=0p ps=0u w=2.5e+06u l=150000u
X46 VREFP VREFP VHI VHI sky130_fd_pr__pfet_01v8 ad=2.9e+12p pd=2.058e+07u as=0p ps=0u w=1e+07u l=2e+06u
X47 VLO a_7113_n5348# sky130_fd_pr__cap_mim_m3_1 l=2.7e+07u w=5.5e+06u
X48 VOUT a_19824_855# sky130_fd_pr__cap_mim_m3_1 l=3.14e+07u w=1.6e+06u
X49 a_7554_10188# VOUT a_7199_9100# VLO sky130_fd_pr__nfet_01v8_lvt ad=0p pd=0u as=0p ps=0u w=2.5e+06u l=150000u
X50 a_5596_999# a_4138_1859# a_5605_1344# VHI sky130_fd_pr__pfet_01v8 ad=0p pd=0u as=0p ps=0u w=640000u l=150000u
X51 VOUT a_32676_n51# sky130_fd_pr__cap_mim_m3_1 l=3.14e+07u w=1.6e+06u
X52 VLO VHI sky130_fd_pr__cap_mim_m3_2 l=3.1e+07u w=1.3e+07u
X53 VHI a_7615_1290# a_8671_974# VHI sky130_fd_pr__pfet_01v8 ad=0p pd=0u as=0p ps=0u w=1e+06u l=150000u
X54 a_23394_855# a_15452_807# VLO VLO sky130_fd_pr__nfet_01v8 ad=0p pd=0u as=0p ps=0u w=2e+06u l=150000u
X55 a_35532_855# a_35444_807# VLO VLO sky130_fd_pr__nfet_01v8 ad=0p pd=0u as=0p ps=0u w=2e+06u l=150000u
X56 a_7113_6572# OPAEN a_10852_6872# VLO sky130_fd_pr__nfet_01v8 ad=0p pd=0u as=0p ps=0u w=2.5e+06u l=150000u
X57 a_31962_855# a_26876_807# VLO VLO sky130_fd_pr__nfet_01v8 ad=0p pd=0u as=0p ps=0u w=2e+06u l=150000u
X58 VHI a_2162_2276# a_3881_2580# VHI sky130_fd_pr__pfet_01v8 ad=0p pd=0u as=0p ps=0u w=1.12e+06u l=150000u
X59 VOUT a_16968_855# sky130_fd_pr__cap_mim_m3_1 l=3.14e+07u w=1.6e+06u
X60 a_18396_n51# VOUT sky130_fd_pr__cap_mim_m3_2 l=3.14e+07u w=1.6e+06u
X61 VOUT a_21252_855# sky130_fd_pr__cap_mim_m3_1 l=3.14e+07u w=1.6e+06u
X62 VHI a_6256_n8982# a_6256_n8982# VHI sky130_fd_pr__pfet_01v8 ad=0p pd=0u as=0p ps=0u w=1e+07u l=300000u
X63 VLO a_7615_1719# a_7646_2046# VLO sky130_fd_pr__nfet_01v8_lvt ad=0p pd=0u as=0p ps=0u w=420000u l=150000u
X64 a_36960_855# VOUT sky130_fd_pr__cap_mim_m3_2 l=3.14e+07u w=1.6e+06u
X65 a_6553_1344# a_6267_1248# a_6469_1344# VHI sky130_fd_pr__pfet_01v8 ad=0p pd=0u as=0p ps=0u w=420000u l=150000u
D1 C100 VHI sky130_fd_pr__diode_pd2nw_05v5 pj=3.34e+06 area=6.552e+11
X66 a_3894_182# a_4375_1015# sky130_fd_pr__cap_mim_m3_2 l=1.6e+06u w=7.85e+06u
X67 a_5172_9020# a_2162_2276# sky130_fd_pr__cap_mim_m3_2 l=1.32e+07u w=3.7e+06u
X68 VLO a_7615_1290# a_7646_962# VLO sky130_fd_pr__nfet_01v8_lvt ad=0p pd=0u as=0p ps=0u w=420000u l=150000u
X69 VOUT a_19110_n51# sky130_fd_pr__cap_mim_m3_1 l=3.14e+07u w=1.6e+06u
X70 VHI a_6256_n8982# a_2162_1962# VHI sky130_fd_pr__pfet_01v8 ad=0p pd=0u as=0p ps=0u w=1e+07u l=300000u
X71 a_5426_1344# a_5740_1290# a_5596_999# VHI sky130_fd_pr__pfet_01v8 ad=0p pd=0u as=0p ps=0u w=640000u l=150000u
X72 a_5740_1290# VLO VHI VHI sky130_fd_pr__pfet_01v8 ad=0p pd=0u as=0p ps=0u w=640000u l=150000u
X73 a_22680_855# VOUT sky130_fd_pr__cap_mim_m3_2 l=3.14e+07u w=1.6e+06u
X74 a_16968_855# a_15452_807# VLO VLO sky130_fd_pr__nfet_01v8 ad=0p pd=0u as=0p ps=0u w=2e+06u l=150000u
X75 a_7301_1977# a_6406_1780# VLO VLO sky130_fd_pr__nfet_01v8_lvt ad=0p pd=0u as=0p ps=0u w=550000u l=150000u
D2 IREF VHI sky130_fd_pr__diode_pd2nw_05v5 pj=3.34e+06 area=6.552e+11
X76 VHI a_7615_1719# a_7570_1620# VHI sky130_fd_pr__pfet_01v8 ad=0p pd=0u as=0p ps=0u w=420000u l=150000u
X77 a_6256_n8982# a_6256_n8982# VHI VHI sky130_fd_pr__pfet_01v8 ad=0p pd=0u as=0p ps=0u w=1e+07u l=300000u
X78 VHI a_5033_1248# a_6087_978# VHI sky130_fd_pr__pfet_01v8 ad=0p pd=0u as=0p ps=0u w=1.12e+06u l=150000u
D3 VLO CLKIN sky130_fd_pr__diode_pw2nd_05v5 pj=3.24e+06 area=6.417e+11
X79 VOUT a_36960_n51# sky130_fd_pr__cap_mim_m3_1 l=3.14e+07u w=1.6e+06u
X80 a_7199_9100# LLIM a_6256_10188# VLO sky130_fd_pr__nfet_01v8_lvt ad=0p pd=0u as=0p ps=0u w=2.5e+06u l=150000u
X81 a_16254_855# VOUT sky130_fd_pr__cap_mim_m3_2 l=3.14e+07u w=1.6e+06u
X82 a_15540_n51# VOUT sky130_fd_pr__cap_mim_m3_2 l=3.14e+07u w=1.6e+06u
X83 VHI VLO VHI VHI sky130_fd_pr__pfet_01v8 ad=0p pd=0u as=0p ps=0u w=1e+06u l=1e+06u
X84 a_7396_962# a_6087_978# a_7301_1005# VLO sky130_fd_pr__nfet_01v8_lvt ad=0p pd=0u as=0p ps=0u w=550000u l=150000u
X85 VHI VLO a_5426_1344# VHI sky130_fd_pr__pfet_01v8 ad=0p pd=0u as=0p ps=0u w=640000u l=150000u
X86 VOUT a_33390_855# sky130_fd_pr__cap_mim_m3_1 l=3.14e+07u w=1.6e+06u
X87 a_2162_1962# a_6256_n8982# VHI VHI sky130_fd_pr__pfet_01v8 ad=0p pd=0u as=0p ps=0u w=1e+07u l=300000u
X88 VLO a_5406_n6052# a_5406_n6052# VLO sky130_fd_pr__nfet_01v8 ad=0p pd=0u as=0p ps=0u w=1e+07u l=300000u
X89 GP a_8871_1620# VHI VHI sky130_fd_pr__pfet_01v8 ad=2.7496e+12p pd=9.39e+06u as=0p ps=0u w=1.12e+06u l=150000u
X90 VLO a_7113_6572# a_7199_9100# VLO sky130_fd_pr__nfet_01v8 ad=0p pd=0u as=0p ps=0u w=1e+07u l=2e+06u
X91 a_7554_10188# VOUT a_7199_9100# VLO sky130_fd_pr__nfet_01v8_lvt ad=0p pd=0u as=0p ps=0u w=2.5e+06u l=150000u
X92 a_27678_n51# VOUT sky130_fd_pr__cap_mim_m3_2 l=3.14e+07u w=1.6e+06u
X93 VLO a_15452_n11# a_29106_n51# VLO sky130_fd_pr__nfet_01v8 ad=0p pd=0u as=0p ps=0u w=2e+06u l=150000u
X94 VHI a_6256_n8982# a_2162_1962# VHI sky130_fd_pr__pfet_01v8 ad=0p pd=0u as=0p ps=0u w=1e+07u l=300000u
X95 a_5596_2009# VLO a_5518_2009# VLO sky130_fd_pr__nfet_01v8_lvt ad=0p pd=0u as=0p ps=0u w=420000u l=150000u
X96 a_7851_954# a_7396_962# a_7615_1290# VLO sky130_fd_pr__nfet_01v8_lvt ad=0p pd=0u as=0p ps=0u w=740000u l=150000u
X97 GN a_9356_1289# VLO VLO sky130_fd_pr__nfet_01v8_lvt ad=5.254e+11p pd=4.38e+06u as=0p ps=0u w=740000u l=150000u
X98 a_7851_1990# VHI VLO VLO sky130_fd_pr__nfet_01v8_lvt ad=0p pd=0u as=0p ps=0u w=740000u l=150000u
X99 VOUT a_28392_n51# sky130_fd_pr__cap_mim_m3_1 l=3.14e+07u w=1.6e+06u
X100 a_7615_1290# a_7042_1137# a_7851_954# VLO sky130_fd_pr__nfet_01v8_lvt ad=0p pd=0u as=0p ps=0u w=740000u l=150000u
X101 a_7554_10188# a_6256_10188# VHI VHI sky130_fd_pr__pfet_01v8 ad=0p pd=0u as=0p ps=0u w=1e+07u l=300000u
X102 VHI VLO VHI VHI sky130_fd_pr__pfet_01v8 ad=0p pd=0u as=0p ps=0u w=1e+06u l=1e+06u
X103 VOUT a_26964_n51# sky130_fd_pr__cap_mim_m3_1 l=3.14e+07u w=1.6e+06u
X104 a_36246_855# VOUT sky130_fd_pr__cap_mim_m3_2 l=3.14e+07u w=1.6e+06u
X105 a_6267_1248# a_6087_978# VHI VHI sky130_fd_pr__pfet_01v8 ad=0p pd=0u as=0p ps=0u w=1.12e+06u l=150000u
X106 VLO a_15452_n11# a_29820_n51# VLO sky130_fd_pr__nfet_01v8 ad=0p pd=0u as=0p ps=0u w=2e+06u l=150000u
X107 a_24822_n51# VOUT sky130_fd_pr__cap_mim_m3_2 l=3.14e+07u w=1.6e+06u
X108 a_36246_855# a_35444_807# VLO VLO sky130_fd_pr__nfet_01v8 ad=0p pd=0u as=0p ps=0u w=2e+06u l=150000u
X109 a_4327_3952# C100 VLO VLO sky130_fd_pr__nfet_01v8 ad=0p pd=0u as=0p ps=0u w=2e+06u l=150000u
X110 a_3894_n532# a_4375_1015# sky130_fd_pr__cap_mim_m3_2 l=1.6e+06u w=1.57e+07u
X111 a_7396_962# a_6267_1248# a_7385_1304# VHI sky130_fd_pr__pfet_01v8 ad=0p pd=0u as=0p ps=0u w=840000u l=150000u
X112 a_3894_182# C50 VLO VLO sky130_fd_pr__nfet_01v8 ad=0p pd=0u as=0p ps=0u w=2e+06u l=150000u
X113 VHI a_6256_10188# a_7554_10188# VHI sky130_fd_pr__pfet_01v8 ad=0p pd=0u as=0p ps=0u w=1e+07u l=300000u
X114 a_5605_1344# VLO VHI VHI sky130_fd_pr__pfet_01v8 ad=0p pd=0u as=0p ps=0u w=640000u l=150000u
X115 a_7554_n8982# ULIM a_7199_n6200# VLO sky130_fd_pr__nfet_01v8_lvt ad=0p pd=0u as=0p ps=0u w=2.5e+06u l=150000u
X116 a_17682_855# a_15452_807# VLO VLO sky130_fd_pr__nfet_01v8 ad=0p pd=0u as=0p ps=0u w=2e+06u l=150000u
X117 a_32676_855# a_32588_807# VLO VLO sky130_fd_pr__nfet_01v8 ad=0p pd=0u as=0p ps=0u w=2e+06u l=150000u
X118 a_29820_855# a_26876_807# VLO VLO sky130_fd_pr__nfet_01v8 ad=0p pd=0u as=0p ps=0u w=2e+06u l=150000u
X119 a_21966_855# VOUT sky130_fd_pr__cap_mim_m3_2 l=3.14e+07u w=1.6e+06u
X120 a_23394_n51# VOUT sky130_fd_pr__cap_mim_m3_2 l=3.14e+07u w=1.6e+06u
X121 a_3881_2580# a_2162_2276# a_3884_2286# VLO sky130_fd_pr__nfet_01v8_lvt ad=0p pd=0u as=0p ps=0u w=740000u l=150000u
X122 VHI a_8871_1620# a_9356_1289# VHI sky130_fd_pr__pfet_01v8 ad=0p pd=0u as=0p ps=0u w=840000u l=150000u
X123 VHI VLO VHI VHI sky130_fd_pr__pfet_01v8 ad=0p pd=0u as=0p ps=0u w=1e+06u l=1e+06u
X124 a_9266_1990# a_8871_1620# GP VLO sky130_fd_pr__nfet_01v8_lvt ad=0p pd=0u as=5.365e+11p ps=4.41e+06u w=740000u l=150000u
X125 a_17682_855# VOUT sky130_fd_pr__cap_mim_m3_2 l=3.14e+07u w=1.6e+06u
X126 VHI VLO VHI VHI sky130_fd_pr__pfet_01v8 ad=0p pd=0u as=0p ps=0u w=1e+06u l=1e+06u
X127 a_3894_n532# C100 VLO VLO sky130_fd_pr__nfet_01v8 ad=0p pd=0u as=0p ps=0u w=2e+06u l=150000u
X128 VLO VLO VLO VLO sky130_fd_pr__nfet_01v8 ad=0p pd=0u as=0p ps=0u w=1e+07u l=300000u
X129 VOUT a_24108_n51# sky130_fd_pr__cap_mim_m3_1 l=3.14e+07u w=1.6e+06u
X130 a_8325_10285# a_6256_10188# VHI VHI sky130_fd_pr__pfet_01v8 ad=0p pd=0u as=0p ps=0u w=1e+07u l=300000u
X131 a_4278_1644# a_4138_1859# VHI VHI sky130_fd_pr__pfet_01v8 ad=0p pd=0u as=0p ps=0u w=1e+06u l=150000u
X132 a_4138_1859# a_7615_1290# VHI VHI sky130_fd_pr__pfet_01v8 ad=0p pd=0u as=0p ps=0u w=1.12e+06u l=150000u
X133 VLO VLO VLO VLO sky130_fd_pr__nfet_01v8 ad=0p pd=0u as=0p ps=0u w=1e+07u l=300000u
X134 VOUT a_24822_855# sky130_fd_pr__cap_mim_m3_1 l=3.14e+07u w=1.6e+06u
X135 VOUT a_28392_855# sky130_fd_pr__cap_mim_m3_1 l=3.14e+07u w=1.6e+06u
X136 a_3679_1248# a_4375_1015# VLO sky130_fd_pr__res_xhigh_po_1p41 l=500000u
X137 VLO VHI VLO VLO sky130_fd_pr__nfet_01v8_lvt ad=0p pd=0u as=0p ps=0u w=420000u l=1e+06u
X138 a_20538_n51# VOUT sky130_fd_pr__cap_mim_m3_2 l=3.14e+07u w=1.6e+06u
X139 a_4579_1644# a_3881_2580# a_4359_1990# VHI sky130_fd_pr__pfet_01v8 ad=0p pd=0u as=0p ps=0u w=1e+06u l=150000u
X140 VLO VHI VLO VLO sky130_fd_pr__nfet_01v8_lvt ad=0p pd=0u as=0p ps=0u w=420000u l=1e+06u
X141 VOUT a_19824_n51# sky130_fd_pr__cap_mim_m3_1 l=3.14e+07u w=1.6e+06u
X142 VHI a_6256_10188# a_8325_10285# VHI sky130_fd_pr__pfet_01v8 ad=0p pd=0u as=0p ps=0u w=1e+07u l=300000u
X143 a_7199_9100# VOUT a_7554_10188# VLO sky130_fd_pr__nfet_01v8_lvt ad=0p pd=0u as=0p ps=0u w=2.5e+06u l=150000u
X144 VLO VLO VLO VLO sky130_fd_pr__nfet_01v8 ad=0p pd=0u as=0p ps=0u w=1e+07u l=300000u
X145 a_6256_n8982# VOUT a_7199_n6200# VLO sky130_fd_pr__nfet_01v8_lvt ad=0p pd=0u as=0p ps=0u w=2.5e+06u l=150000u
X146 VOUT a_21252_n51# sky130_fd_pr__cap_mim_m3_1 l=3.14e+07u w=1.6e+06u
X147 a_7955_1272# a_7042_1137# VHI VHI sky130_fd_pr__pfet_01v8 ad=0p pd=0u as=0p ps=0u w=1e+06u l=150000u
X148 a_19824_855# VOUT sky130_fd_pr__cap_mim_m3_2 l=3.14e+07u w=1.6e+06u
X149 a_7113_n5348# VLO sky130_fd_pr__cap_mim_m3_2 l=2.7e+07u w=5.5e+06u
X150 VLO a_15452_n11# a_19824_n51# VLO sky130_fd_pr__nfet_01v8 ad=0p pd=0u as=0p ps=0u w=2e+06u l=150000u
X151 a_8871_1248# a_8671_974# VLO VLO sky130_fd_pr__nfet_01v8_lvt ad=0p pd=0u as=0p ps=0u w=740000u l=150000u
X152 VLO VLO VLO VLO sky130_fd_pr__nfet_01v8 ad=0p pd=0u as=0p ps=0u w=1e+07u l=300000u
X153 GP a_8871_1620# a_9266_1990# VLO sky130_fd_pr__nfet_01v8_lvt ad=0p pd=0u as=0p ps=0u w=740000u l=150000u
X154 a_32676_n51# VOUT sky130_fd_pr__cap_mim_m3_2 l=3.14e+07u w=1.6e+06u
X155 a_5406_n6052# a_7554_n8982# VHI VHI sky130_fd_pr__pfet_01v8 ad=0p pd=0u as=0p ps=0u w=1e+07u l=300000u
X156 VLO C50 a_3457_3238# VLO sky130_fd_pr__nfet_01v8 ad=0p pd=0u as=0p ps=0u w=2e+06u l=150000u
X157 a_3223_1795# a_3457_3238# sky130_fd_pr__cap_mim_m3_1 l=1.6e+06u w=1.57e+07u
X158 a_7554_n8982# ULIM a_7199_n6200# VLO sky130_fd_pr__nfet_01v8_lvt ad=0p pd=0u as=0p ps=0u w=2.5e+06u l=150000u
X159 a_33390_855# a_32588_807# VLO VLO sky130_fd_pr__nfet_01v8 ad=0p pd=0u as=0p ps=0u w=2e+06u l=150000u
X160 VOUT a_33390_n51# sky130_fd_pr__cap_mim_m3_1 l=3.14e+07u w=1.6e+06u
X161 VLO a_15452_n11# a_19110_n51# VLO sky130_fd_pr__nfet_01v8 ad=0p pd=0u as=0p ps=0u w=2e+06u l=150000u
X162 VHI a_7615_1290# a_4138_1859# VHI sky130_fd_pr__pfet_01v8 ad=0p pd=0u as=0p ps=0u w=1.12e+06u l=150000u
X163 a_7199_n6200# VOUT a_6256_n8982# VLO sky130_fd_pr__nfet_01v8_lvt ad=0p pd=0u as=0p ps=0u w=2.5e+06u l=150000u
X164 VLO a_8871_1620# a_9353_999# VLO sky130_fd_pr__nfet_01v8_lvt ad=0p pd=0u as=0p ps=0u w=640000u l=150000u
X165 a_4138_1859# a_7615_1290# VLO VLO sky130_fd_pr__nfet_01v8_lvt ad=0p pd=0u as=0p ps=0u w=740000u l=150000u
D4 VLO a_2162_1962# sky130_fd_pr__diode_pw2nd_05v5 pj=3.24e+06 area=6.417e+11
X166 a_2162_1962# a_5406_n6052# VLO VLO sky130_fd_pr__nfet_01v8 ad=0p pd=0u as=0p ps=0u w=1e+07u l=300000u
X167 VLO a_15452_n11# a_33390_n51# VLO sky130_fd_pr__nfet_01v8 ad=0p pd=0u as=0p ps=0u w=2e+06u l=150000u
X168 a_16968_855# VOUT sky130_fd_pr__cap_mim_m3_2 l=3.14e+07u w=1.6e+06u
X169 VHI a_7554_n8982# a_5406_n6052# VHI sky130_fd_pr__pfet_01v8 ad=0p pd=0u as=0p ps=0u w=1e+07u l=300000u
X170 a_6406_1246# a_6553_1344# a_6872_953# VLO sky130_fd_pr__nfet_01v8_lvt ad=0p pd=0u as=0p ps=0u w=550000u l=150000u
X171 VLO a_15452_n11# a_32676_n51# VLO sky130_fd_pr__nfet_01v8 ad=0p pd=0u as=0p ps=0u w=2e+06u l=150000u
X172 VHI a_6256_10188# a_6256_10188# VHI sky130_fd_pr__pfet_01v8 ad=0p pd=0u as=0p ps=0u w=1e+07u l=300000u
X173 a_7396_2020# a_6267_1620# a_7385_1620# VHI sky130_fd_pr__pfet_01v8 ad=0p pd=0u as=0p ps=0u w=840000u l=150000u
X174 a_10822_1684# VREFP VLO sky130_fd_pr__res_xhigh_po w=350000u l=5.17e+06u
X175 VOUT a_20538_855# sky130_fd_pr__cap_mim_m3_1 l=3.14e+07u w=1.6e+06u
X176 a_5518_2009# VLO VLO VLO sky130_fd_pr__nfet_01v8_lvt ad=0p pd=0u as=0p ps=0u w=420000u l=150000u
X177 a_3223_2347# a_4327_3238# sky130_fd_pr__cap_mim_m3_1 l=1.6e+06u w=1.57e+07u
X178 a_21252_855# VOUT sky130_fd_pr__cap_mim_m3_2 l=3.14e+07u w=1.6e+06u
X179 VOUT a_24108_855# sky130_fd_pr__cap_mim_m3_1 l=3.14e+07u w=1.6e+06u
X180 a_7199_n6200# ULIM a_7554_n8982# VLO sky130_fd_pr__nfet_01v8_lvt ad=0p pd=0u as=0p ps=0u w=2.5e+06u l=150000u
X181 VLO a_5406_n6052# a_2162_1962# VLO sky130_fd_pr__nfet_01v8 ad=0p pd=0u as=0p ps=0u w=1e+07u l=300000u
X182 VHI a_6256_10188# a_2162_2276# VHI sky130_fd_pr__pfet_01v8 ad=0p pd=0u as=0p ps=0u w=1e+07u l=300000u
X183 a_18396_855# a_15452_807# VLO VLO sky130_fd_pr__nfet_01v8 ad=0p pd=0u as=0p ps=0u w=2e+06u l=150000u
X184 VLO VLO a_13194_308# VLO sky130_fd_pr__nfet_01v8 ad=0p pd=0u as=0p ps=0u w=5e+06u l=2e+06u
X185 a_5406_n6052# a_7554_n8982# VHI VHI sky130_fd_pr__pfet_01v8 ad=0p pd=0u as=0p ps=0u w=1e+07u l=300000u
X186 a_19110_n51# VOUT sky130_fd_pr__cap_mim_m3_2 l=3.14e+07u w=1.6e+06u
X187 a_37586_807# B1 VLO sky130_fd_pr__res_xhigh_po_0p35 l=500000u
X188 a_6256_10188# a_6256_10188# VHI VHI sky130_fd_pr__pfet_01v8 ad=0p pd=0u as=0p ps=0u w=1e+07u l=300000u
X189 a_26964_855# a_26876_807# VLO VLO sky130_fd_pr__nfet_01v8 ad=0p pd=0u as=0p ps=0u w=2e+06u l=150000u
X190 a_4817_1620# a_4359_1990# VHI VHI sky130_fd_pr__pfet_01v8 ad=0p pd=0u as=0p ps=0u w=1.12e+06u l=150000u
X191 GN a_9356_1289# VHI VHI sky130_fd_pr__pfet_01v8 ad=6.944e+11p pd=5.72e+06u as=0p ps=0u w=1.12e+06u l=150000u
X192 VLO VLO VLO VLO sky130_fd_pr__nfet_01v8_lvt ad=0p pd=0u as=0p ps=0u w=2.5e+06u l=150000u
X193 a_7570_1388# a_6087_978# a_7396_962# VHI sky130_fd_pr__pfet_01v8 ad=0p pd=0u as=0p ps=0u w=420000u l=150000u
X194 a_7851_1990# a_7396_2020# a_7615_1719# VLO sky130_fd_pr__nfet_01v8_lvt ad=0p pd=0u as=0p ps=0u w=740000u l=150000u
X195 a_6406_1246# VHI VHI VHI sky130_fd_pr__pfet_01v8 ad=0p pd=0u as=0p ps=0u w=840000u l=150000u
X196 a_7385_1304# a_6406_1246# VHI VHI sky130_fd_pr__pfet_01v8 ad=0p pd=0u as=0p ps=0u w=840000u l=150000u
X197 a_36960_n51# VOUT sky130_fd_pr__cap_mim_m3_2 l=3.14e+07u w=1.6e+06u
X198 VLO a_15452_n11# a_31248_n51# VLO sky130_fd_pr__nfet_01v8 ad=0p pd=0u as=0p ps=0u w=2e+06u l=150000u
X199 a_2162_2276# a_6256_10188# VHI VHI sky130_fd_pr__pfet_01v8 ad=0p pd=0u as=0p ps=0u w=1e+07u l=300000u
X200 VOUT a_32676_855# sky130_fd_pr__cap_mim_m3_1 l=3.14e+07u w=1.6e+06u
X201 VHI a_7554_n8982# a_5406_n6052# VHI sky130_fd_pr__pfet_01v8 ad=0p pd=0u as=0p ps=0u w=1e+07u l=300000u
X202 a_33390_855# VOUT sky130_fd_pr__cap_mim_m3_2 l=3.14e+07u w=1.6e+06u
X203 a_9356_1289# a_8871_1620# VHI VHI sky130_fd_pr__pfet_01v8 ad=0p pd=0u as=0p ps=0u w=840000u l=150000u
X204 a_3884_2286# a_3223_2347# VLO VLO sky130_fd_pr__nfet_01v8_lvt ad=0p pd=0u as=0p ps=0u w=740000u l=150000u
X205 a_5596_999# a_6087_978# a_6553_1344# VHI sky130_fd_pr__pfet_01v8 ad=0p pd=0u as=0p ps=0u w=640000u l=150000u
X206 a_5033_1620# CLKIN VHI VHI sky130_fd_pr__pfet_01v8 ad=0p pd=0u as=0p ps=0u w=1.12e+06u l=150000u
X207 a_10852_n3914# a_10295_n848# VLO VLO sky130_fd_pr__nfet_01v8 ad=0p pd=0u as=0p ps=0u w=2.5e+06u l=150000u
X208 VLO a_15452_n11# a_23394_n51# VLO sky130_fd_pr__nfet_01v8 ad=0p pd=0u as=0p ps=0u w=2e+06u l=150000u
X209 VHI a_6256_10188# a_2162_2276# VHI sky130_fd_pr__pfet_01v8 ad=0p pd=0u as=0p ps=0u w=1e+07u l=300000u
X210 a_5406_n6052# a_7554_n8982# VHI VHI sky130_fd_pr__pfet_01v8 ad=0p pd=0u as=0p ps=0u w=1e+07u l=300000u
X211 a_7199_n6200# VOUT a_6256_n8982# VLO sky130_fd_pr__nfet_01v8_lvt ad=0p pd=0u as=0p ps=0u w=2.5e+06u l=150000u
X212 VHI a_9356_1289# GN VHI sky130_fd_pr__pfet_01v8 ad=0p pd=0u as=0p ps=0u w=1.12e+06u l=150000u
X213 a_6256_10188# LLIM a_7199_9100# VLO sky130_fd_pr__nfet_01v8_lvt ad=0p pd=0u as=0p ps=0u w=2.5e+06u l=150000u
X214 VOUT a_36246_n51# sky130_fd_pr__cap_mim_m3_1 l=3.14e+07u w=1.6e+06u
X215 VLO a_15452_n11# a_31962_n51# VLO sky130_fd_pr__nfet_01v8 ad=0p pd=0u as=0p ps=0u w=2e+06u l=150000u
X216 VHI a_7042_1137# a_6991_1304# VHI sky130_fd_pr__pfet_01v8 ad=0p pd=0u as=0p ps=0u w=840000u l=150000u
X217 VOUT a_17682_n51# sky130_fd_pr__cap_mim_m3_1 l=3.14e+07u w=1.6e+06u
X218 a_2527_2580# a_2162_2276# VHI VHI sky130_fd_pr__pfet_01v8 ad=0p pd=0u as=0p ps=0u w=1.12e+06u l=150000u
X219 a_2527_2580# a_3223_2347# VLO sky130_fd_pr__res_xhigh_po_1p41 l=500000u
X220 VLO VHI a_6872_1977# VLO sky130_fd_pr__nfet_01v8_lvt ad=0p pd=0u as=0p ps=0u w=550000u l=150000u
X221 a_28392_n51# VOUT sky130_fd_pr__cap_mim_m3_2 l=3.14e+07u w=1.6e+06u
X222 VLO VLO VLO VLO sky130_fd_pr__nfet_01v8 ad=0p pd=0u as=0p ps=0u w=1e+07u l=300000u
X223 a_7301_1005# a_6406_1246# VLO VLO sky130_fd_pr__nfet_01v8_lvt ad=0p pd=0u as=0p ps=0u w=550000u l=150000u
X224 a_26964_n51# VOUT sky130_fd_pr__cap_mim_m3_2 l=3.14e+07u w=1.6e+06u
X225 VHI VLO VHI VHI sky130_fd_pr__pfet_01v8 ad=0p pd=0u as=0p ps=0u w=1e+06u l=1e+06u
X226 VOUT a_15540_855# sky130_fd_pr__cap_mim_m3_1 l=3.14e+07u w=1.6e+06u
X227 VLO a_10295_n848# a_10852_n3914# VLO sky130_fd_pr__nfet_01v8 ad=0p pd=0u as=0p ps=0u w=2.5e+06u l=150000u
X228 VOUT a_19110_855# sky130_fd_pr__cap_mim_m3_1 l=3.14e+07u w=1.6e+06u
X229 VLO a_15452_n11# a_30534_n51# VLO sky130_fd_pr__nfet_01v8 ad=0p pd=0u as=0p ps=0u w=2e+06u l=150000u
X230 a_13194_308# IREF VLO VLO sky130_fd_pr__nfet_01v8 ad=0p pd=0u as=0p ps=0u w=5e+06u l=2e+06u
X231 VLO a_5406_9020# a_5406_9020# VLO sky130_fd_pr__nfet_01v8 ad=0p pd=0u as=0p ps=0u w=1e+07u l=300000u
X232 a_5596_2009# VHI a_5605_1620# VHI sky130_fd_pr__pfet_01v8 ad=0p pd=0u as=0p ps=0u w=640000u l=150000u
X233 VHI a_4138_1859# a_9356_1289# VHI sky130_fd_pr__pfet_01v8 ad=0p pd=0u as=0p ps=0u w=840000u l=150000u
X234 VHI a_8871_1248# GP VHI sky130_fd_pr__pfet_01v8 ad=0p pd=0u as=0p ps=0u w=1.12e+06u l=150000u
X235 VLO VLO VLO VLO sky130_fd_pr__nfet_01v8_lvt ad=0p pd=0u as=0p ps=0u w=2.5e+06u l=150000u
X236 VHI a_6256_n8982# a_6256_n8982# VHI sky130_fd_pr__pfet_01v8 ad=0p pd=0u as=0p ps=0u w=1e+07u l=300000u
X237 a_9353_999# a_4138_1859# a_9356_1289# VLO sky130_fd_pr__nfet_01v8_lvt ad=0p pd=0u as=0p ps=0u w=640000u l=150000u
X238 VHI VLO VHI VHI sky130_fd_pr__pfet_01v8 ad=0p pd=0u as=0p ps=0u w=1e+06u l=1e+06u
X239 a_7554_n8982# a_7554_n8982# VHI VHI sky130_fd_pr__pfet_01v8 ad=0p pd=0u as=0p ps=0u w=1e+07u l=300000u
X240 a_10852_n3914# IREF VLO sky130_fd_pr__res_xhigh_po w=350000u l=1.49e+06u
X241 VLO a_15452_n11# a_22680_n51# VLO sky130_fd_pr__nfet_01v8 ad=0p pd=0u as=0p ps=0u w=2e+06u l=150000u
X242 a_7199_9100# a_7113_6572# VLO VLO sky130_fd_pr__nfet_01v8 ad=0p pd=0u as=0p ps=0u w=1e+07u l=2e+06u
X243 a_24108_n51# VOUT sky130_fd_pr__cap_mim_m3_2 l=3.14e+07u w=1.6e+06u
X244 a_5172_n6052# a_5406_n6052# VLO sky130_fd_pr__res_high_po w=690000u l=5.83e+06u
X245 a_10852_6872# OPAEN a_7113_6572# VLO sky130_fd_pr__nfet_01v8 ad=0p pd=0u as=0p ps=0u w=2.5e+06u l=150000u
X246 VOUT a_27678_855# sky130_fd_pr__cap_mim_m3_1 l=3.14e+07u w=1.6e+06u
X247 a_24822_855# VOUT sky130_fd_pr__cap_mim_m3_2 l=3.14e+07u w=1.6e+06u
X248 a_28392_855# VOUT sky130_fd_pr__cap_mim_m3_2 l=3.14e+07u w=1.6e+06u
X249 VLO a_15452_n11# a_21966_n51# VLO sky130_fd_pr__nfet_01v8 ad=0p pd=0u as=0p ps=0u w=2e+06u l=150000u
X250 VLO GP a_13194_1737# VLO sky130_fd_pr__nfet_01v8 ad=0p pd=0u as=0p ps=0u w=5e+06u l=150000u
X251 a_7617_n8885# a_7554_n8982# VHI VHI sky130_fd_pr__pfet_01v8 ad=0p pd=0u as=0p ps=0u w=1e+07u l=300000u
X252 VHI a_7615_1719# a_8671_1990# VHI sky130_fd_pr__pfet_01v8 ad=0p pd=0u as=0p ps=0u w=1e+06u l=150000u
X253 a_6406_1780# VHI VHI VHI sky130_fd_pr__pfet_01v8 ad=0p pd=0u as=0p ps=0u w=840000u l=150000u
X254 VHI VLO VHI VHI sky130_fd_pr__pfet_01v8 ad=0p pd=0u as=0p ps=0u w=1e+06u l=1e+06u
X255 a_4498_1990# a_3881_1620# a_4359_1990# VLO sky130_fd_pr__nfet_01v8_lvt ad=0p pd=0u as=0p ps=0u w=740000u l=150000u
X256 a_7385_1620# a_6406_1780# VHI VHI sky130_fd_pr__pfet_01v8 ad=0p pd=0u as=0p ps=0u w=840000u l=150000u
X257 a_19824_n51# VOUT sky130_fd_pr__cap_mim_m3_2 l=3.14e+07u w=1.6e+06u
X258 VOUT a_31962_855# sky130_fd_pr__cap_mim_m3_1 l=3.14e+07u w=1.6e+06u
X259 a_27678_855# a_26876_807# VLO VLO sky130_fd_pr__nfet_01v8 ad=0p pd=0u as=0p ps=0u w=2e+06u l=150000u
X260 a_9356_1289# a_4138_1859# VHI VHI sky130_fd_pr__pfet_01v8 ad=0p pd=0u as=0p ps=0u w=840000u l=150000u
X261 VOUT a_35532_855# sky130_fd_pr__cap_mim_m3_1 l=3.14e+07u w=1.6e+06u
X262 a_7199_9100# LLIM a_6256_10188# VLO sky130_fd_pr__nfet_01v8_lvt ad=0p pd=0u as=0p ps=0u w=2.5e+06u l=150000u
X263 VHI VLO VHI VHI sky130_fd_pr__pfet_01v8 ad=0p pd=0u as=0p ps=0u w=1e+06u l=1e+06u
X264 a_10295_n848# OPAEN VHI VHI sky130_fd_pr__pfet_01v8_hvt ad=0p pd=0u as=0p ps=0u w=1e+06u l=150000u
X265 VLO a_15452_n11# a_21252_n51# VLO sky130_fd_pr__nfet_01v8 ad=0p pd=0u as=0p ps=0u w=2e+06u l=150000u
X266 a_21252_n51# VOUT sky130_fd_pr__cap_mim_m3_2 l=3.14e+07u w=1.6e+06u
X267 a_8871_1620# a_8671_1990# VHI VHI sky130_fd_pr__pfet_01v8 ad=0p pd=0u as=0p ps=0u w=1.12e+06u l=150000u
X268 VHI a_7554_n8982# a_7617_n8885# VHI sky130_fd_pr__pfet_01v8 ad=0p pd=0u as=0p ps=0u w=1e+07u l=300000u
X269 a_24108_855# a_15452_807# VLO VLO sky130_fd_pr__nfet_01v8 ad=0p pd=0u as=0p ps=0u w=2e+06u l=150000u
X270 a_5426_1620# a_5740_1763# a_5596_2009# VHI sky130_fd_pr__pfet_01v8 ad=0p pd=0u as=0p ps=0u w=640000u l=150000u
X271 VLO a_7615_1290# a_8671_974# VLO sky130_fd_pr__nfet_01v8_lvt ad=0p pd=0u as=0p ps=0u w=640000u l=150000u
X272 a_5740_1763# VLO VHI VHI sky130_fd_pr__pfet_01v8 ad=0p pd=0u as=0p ps=0u w=640000u l=150000u
X273 VLO a_15452_n11# a_20538_n51# VLO sky130_fd_pr__nfet_01v8 ad=0p pd=0u as=0p ps=0u w=2e+06u l=150000u
X274 VHI VLO VHI VHI sky130_fd_pr__pfet_01v8 ad=0p pd=0u as=0p ps=0u w=1e+06u l=1e+06u
X275 a_20538_855# a_15452_807# VLO VLO sky130_fd_pr__nfet_01v8 ad=0p pd=0u as=0p ps=0u w=2e+06u l=150000u
X276 a_5406_9020# a_7554_10188# VHI VHI sky130_fd_pr__pfet_01v8 ad=0p pd=0u as=0p ps=0u w=1e+07u l=300000u
D5 VLO a_2162_2276# sky130_fd_pr__diode_pw2nd_05v5 pj=3.24e+06 area=6.417e+11
X277 VLO VHI VLO VLO sky130_fd_pr__nfet_01v8_lvt ad=0p pd=0u as=0p ps=0u w=420000u l=1e+06u
X278 VHI a_7042_1803# a_6991_1620# VHI sky130_fd_pr__pfet_01v8 ad=0p pd=0u as=0p ps=0u w=840000u l=150000u
X279 a_2527_1620# a_2162_1962# VLO VLO sky130_fd_pr__nfet_01v8_lvt ad=0p pd=0u as=0p ps=0u w=740000u l=150000u
X280 a_7554_10188# VOUT a_7199_9100# VLO sky130_fd_pr__nfet_01v8_lvt ad=0p pd=0u as=0p ps=0u w=2.5e+06u l=150000u
X281 VLO C100 a_3457_3952# VLO sky130_fd_pr__nfet_01v8 ad=0p pd=0u as=0p ps=0u w=2e+06u l=150000u
X282 VHI VLO VHI VHI sky130_fd_pr__pfet_01v8 ad=0p pd=0u as=0p ps=0u w=1e+06u l=1e+06u
X283 VOUT a_22680_n51# sky130_fd_pr__cap_mim_m3_1 l=3.14e+07u w=1.6e+06u
X284 VLO VHI VLO VLO sky130_fd_pr__nfet_01v8_lvt ad=0p pd=0u as=0p ps=0u w=420000u l=1e+06u
X285 a_6872_1977# a_7042_1803# a_6406_1780# VLO sky130_fd_pr__nfet_01v8_lvt ad=0p pd=0u as=0p ps=0u w=550000u l=150000u
X286 VHI VHI a_13194_1737# VHI sky130_fd_pr__pfet_01v8 ad=0p pd=0u as=0p ps=0u w=1e+07u l=2e+06u
X287 a_3457_3238# a_3223_1795# sky130_fd_pr__cap_mim_m3_2 l=1.6e+06u w=1.57e+07u
X288 a_33390_n51# VOUT sky130_fd_pr__cap_mim_m3_2 l=3.14e+07u w=1.6e+06u
X289 a_6256_n8982# a_7554_n8982# VHI VHI sky130_fd_pr__pfet_01v8 ad=0p pd=0u as=0p ps=0u w=1e+07u l=300000u
X290 VLO VLO VLO VLO sky130_fd_pr__nfet_01v8 ad=0p pd=0u as=0p ps=0u w=1e+07u l=300000u
X291 VLO a_5740_1763# a_5762_2009# VLO sky130_fd_pr__nfet_01v8_lvt ad=0p pd=0u as=0p ps=0u w=420000u l=150000u
X292 VHI VLO a_5426_1620# VHI sky130_fd_pr__pfet_01v8 ad=0p pd=0u as=0p ps=0u w=640000u l=150000u
X293 VLO a_8188_1181# a_7042_1137# VLO sky130_fd_pr__nfet_01v8_lvt ad=0p pd=0u as=0p ps=0u w=420000u l=150000u
X294 VLO a_7113_6572# a_7199_9100# VLO sky130_fd_pr__nfet_01v8 ad=0p pd=0u as=0p ps=0u w=1e+07u l=2e+06u
X295 VHI VLO VHI VHI sky130_fd_pr__pfet_01v8 ad=0p pd=0u as=0p ps=0u w=1e+06u l=1e+06u
X296 VLO VLO a_10822_1684# VLO sky130_fd_pr__nfet_01v8 ad=0p pd=0u as=0p ps=0u w=5e+06u l=2e+06u
X297 VHI a_7554_10188# a_5406_9020# VHI sky130_fd_pr__pfet_01v8 ad=0p pd=0u as=0p ps=0u w=1e+07u l=300000u
X298 VLO VHI VLO VLO sky130_fd_pr__nfet_01v8_lvt ad=0p pd=0u as=0p ps=0u w=420000u l=1e+06u
X299 a_6267_1620# a_6087_1966# VLO VLO sky130_fd_pr__nfet_01v8_lvt ad=0p pd=0u as=0p ps=0u w=740000u l=150000u
X300 a_5596_999# VLO a_5518_999# VLO sky130_fd_pr__nfet_01v8_lvt ad=0p pd=0u as=0p ps=0u w=420000u l=150000u
X301 VOUT a_16254_n51# sky130_fd_pr__cap_mim_m3_1 l=3.14e+07u w=1.6e+06u